@<TRIPOS>MOLECULE
Cpptraj generated mol2 file.
  235   246     2     0     0
SMALL
USER_CHARGES


@<TRIPOS>ATOM
      1 CAA        78.3035   58.2759   35.2277 a2         1 CLA     -0.055900
      2 CAB        78.0837   62.5789   43.9861 c8         1 CLA     -0.148500
      3 CAC        71.3992   58.0614   43.5832 a2         1 CLA     -0.012600
      4 CAD        74.3155   55.6803   36.4710 ck         1 CLA      0.398800
      5 NA         77.1869   58.9634   38.5779 ns         1 CLA     -0.225500
      6 CBA        79.5665   58.1899   34.2880 a2         1 CLA     -0.135000
      7 CBB        79.2261   62.3796   44.6863 c0         1 CLA     -0.395200
      8 CBC        71.5907   56.5279   43.5053 a3         1 CLA     -0.037700
      9 CBD        75.8104   56.1589   36.2607 a1         1 CLA     -0.053900
     10 NB         76.9720   60.5965   41.0349 nm         1 CLA     -0.295700
     11 OBD        73.7309   54.8911   35.7905 o2         1 CLA     -0.494600
     12 CGA        80.0695   56.7568   34.2166 c4         1 CLA      0.827000
     13 CGD        76.7261   54.9680   36.1688 c4         1 CLA      0.655300
     14 ND         74.4641   57.9953   39.0667 nm         1 CLA     -0.291600
     15 CED        77.5222   53.0062   37.4773 a3         1 CLA      0.005400
     16 CHA        76.0372   57.2291   37.3317 cs         1 CLA     -0.123800
     17 CHB        78.9345   60.4876   39.5717 aa         1 CLA     -0.291900
     18 CHC        75.6218   60.8646   43.0381 aa         1 CLA     -0.090400
     19 CHD        72.5321   57.9249   40.6356 aa         1 CLA     -0.052000
     20 CMA        80.7735   58.4430   38.1296 a3         1 CLA     -0.230700
     21 CMB        80.2642   62.2765   41.7516 a3         1 CLA     -0.180800
     22 CMC        73.3081   60.2648   45.0869 a3         1 CLA     -0.134000
     23 CMD        71.5594   55.5624   38.5671 a3         1 CLA     -0.141100
     24 C1         81.9099   55.3871   35.1150 a2         1 CLA      0.023000
     25 C1A        77.1751   58.0118   37.5834 ac         1 CLA     -0.015100
     26 C1B        78.2617   60.9516   40.7137 cr         1 CLA      0.054700
     27 C1C        74.4593   60.0592   42.7051 cn         1 CLA     -0.005600
     28 C1D        73.2162   57.4693   39.4944 ap         1 CLA     -0.047300
     29 O1A        79.8150   55.9143   33.3727 o2         1 CLA     -0.610800
     30 O1D        77.6402   54.8459   35.3409 o2         1 CLA     -0.558200
     31 C2         82.3994   55.0960   36.5564 c8         1 CLA     -0.325100
     32 C2A        78.5352   57.9774   36.7448 a1         1 CLA      0.098600
     33 C2B        78.8492   61.7356   41.7312 cb         1 CLA      0.088500
     34 C2C        73.3448   59.8063   43.6397 cb         1 CLA      0.053700
     35 C2D        72.7836   56.4509   38.6042 cb         1 CLA      0.058900
     36 O2A        80.9878   56.5499   35.2079 o1         1 CLA     -0.437200
     37 O2D        76.4846   54.0386   37.1890 o1         1 CLA     -0.357600
     38 C3         82.6889   53.8755   36.9957 c5         1 CLA      0.031200
     39 C3A        79.4876   59.0272   37.5567 a1         1 CLA      0.166800
     40 C3B        77.8435   61.8403   42.6844 cb         1 CLA      0.035000
     41 C3C        72.4868   58.9442   42.9896 cb         1 CLA     -0.089900
     42 C3D        73.8182   56.3674   37.6855 cb         1 CLA     -0.035900
     43 C4         81.8177   52.8678   37.6794 a3         1 CLA     -0.053300
     44 C4A        78.4670   59.5820   38.6210 ac         1 CLA      0.001800
     45 C4B        76.7612   61.0389   42.3035 cn         1 CLA     -0.020900
     46 C4C        73.0261   58.8051   41.6215 cr         1 CLA     -0.044400
     47 C4D        74.8721   57.2531   38.0867 c6         1 CLA     -0.046000
     48 C5         84.0865   53.3925   36.8249 a2         1 CLA     -0.070400
     49 C6         85.3061   54.1868   37.3962 a2         1 CLA      0.043900
     50 C7         85.3154   54.4017   38.9687 a2         1 CLA     -0.150000
     51 C8         86.1935   55.7110   39.3251 a1         1 CLA      0.064200
     52 C9         87.6535   55.5550   38.8579 a3         1 CLA     -0.259300
     53 C10        86.1584   56.1971   40.7734 a2         1 CLA     -0.071900
     54 C11        84.7175   56.5215   41.2358 a2         1 CLA      0.014500
     55 C12        84.6878   57.3085   42.5395 a2         1 CLA     -0.112100
     56 C13        84.9046   56.6653   43.8859 a1         1 CLA      0.089200
     57 C14        84.0106   55.4644   44.2530 a3         1 CLA     -0.239100
     58 C15        84.9596   57.6688   45.0808 a2         1 CLA     -0.102200
     59 C16        83.7390   58.5803   45.2779 a2         1 CLA      0.023900
     60 C17        83.9551   59.4205   46.4978 a2         1 CLA     -0.105700
     61 C18        83.0714   60.6100   46.5851 a1         1 CLA      0.206800
     62 C19        81.5259   60.2855   46.9401 a3         1 CLA     -0.280100
     63 C20        83.5641   61.6747   47.6242 a3         1 CLA     -0.280100
     64 NC         74.2391   59.5319   41.4754 nx         1 CLA     -0.309200
     65 MG         75.6787   59.4359   39.8942 mg         1 CLA      0.895000
     66 HMD3       71.4921   55.0788   39.5045 dc         1 CLA      0.064300
     67 HMD2       70.6864   56.1880   38.4751 dc         1 CLA      0.064300
     68 HMD1       71.5603   54.9814   37.6308 dc         1 CLA      0.064300
     69 HMC3       73.7539   61.2583   45.0695 dc         1 CLA      0.052100
     70 HMC2       72.3173   60.2177   45.4254 dc         1 CLA      0.052100
     71 HMC1       73.9540   59.5954   45.6567 dc         1 CLA      0.052100
     72 HMB3       80.1270   63.1458   42.3644 dc         1 CLA      0.063600
     73 HMB2       80.9952   61.4600   42.0215 dc         1 CLA      0.063600
     74 HMB1       80.7355   62.6748   40.8130 dc         1 CLA      0.063600
     75 HMA3       80.7333   57.5292   38.7243 dc         1 CLA      0.058300
     76 HMA2       81.2873   58.1938   37.1941 dc         1 CLA      0.058300
     77 HMA1       81.3316   59.1654   38.6998 dc         1 CLA      0.058300
     78 HED3       78.4383   53.4591   37.9164 dc         1 CLA      0.079300
     79 HED2       77.2118   52.2711   38.2266 dc         1 CLA      0.079300
     80 HED1       77.7683   52.4156   36.5651 dc         1 CLA      0.079300
     81 HBC3       72.6119   56.3237   43.8220 dc         1 CLA      0.016300
     82 HBC2       70.9557   55.9019   44.1964 dc         1 CLA      0.016300
     83 HBC1       71.4854   56.0988   42.5248 dc         1 CLA      0.016300
     84 HBB2       79.5646   63.0092   45.5418 da         1 CLA      0.183000
     85 HBB1       79.8522   61.5351   44.3906 da         1 CLA      0.183000
     86 HBA2       79.0697   58.5180   33.3652 dc         1 CLA      0.029400
     87 HBA1       80.2826   59.0390   34.5575 dc         1 CLA      0.029400
     88 HAC2       71.2662   58.3657   44.6155 dc         1 CLA      0.029300
     89 HAC1       70.5201   58.3495   43.1071 dc         1 CLA      0.029300
     90 HAA2       77.6746   57.5363   34.9017 dc         1 CLA      0.028700
     91 HAA1       77.7433   59.2084   35.1131 dc         1 CLA      0.028700
     92 H203       83.7645   61.2290   48.6389 dc         1 CLA      0.065600
     93 H202       84.4762   62.1589   47.2548 dc         1 CLA      0.065600
     94 H201       82.7466   62.4110   47.6559 dc         1 CLA      0.065600
     95 H193       81.4668   60.2406   48.0165 dc         1 CLA      0.065600
     96 H192       80.8764   61.1800   46.7330 dc         1 CLA      0.065600
     97 H191       81.1927   59.2991   46.5649 dc         1 CLA      0.065600
     98 H172       83.9766   58.8704   47.4398 dc         1 CLA      0.027600
     99 H171       84.9191   59.9028   46.3846 dc         1 CLA      0.027600
    100 H162       83.7584   59.2338   44.3709 dc         1 CLA      0.002900
    101 H161       82.7999   58.0452   45.3219 dc         1 CLA      0.002900
    102 H152       84.9612   57.1388   46.0003 dc         1 CLA      0.029100
    103 H151       85.8673   58.2998   45.0984 dc         1 CLA      0.029100
    104 H143       83.0071   55.8726   44.2628 dc         1 CLA      0.063600
    105 H142       84.1244   54.7939   43.3655 dc         1 CLA      0.063600
    106 H141       84.3367   55.0308   45.2533 dc         1 CLA      0.063600
    107 H122       85.4777   58.1005   42.4882 dc         1 CLA      0.032500
    108 H121       83.7581   57.8210   42.5549 dc         1 CLA      0.032500
    109 H112       84.1588   57.0423   40.4869 dc         1 CLA      0.006600
    110 H111       84.2435   55.4977   41.2858 dc         1 CLA      0.006600
    111 H102       86.5825   55.5612   41.5520 dc         1 CLA      0.024100
    112 H101       86.7582   57.0791   40.8799 dc         1 CLA      0.024100
    113 HHD        71.5431   57.5584   40.9144 da         1 CLA      0.174300
    114 HHC        75.6575   61.3419   44.0648 da         1 CLA      0.136800
    115 HHB        79.9349   60.9829   39.4541 da         1 CLA      0.138300
    116 HBD        75.6234   56.5657   35.2631 dc         1 CLA      0.107700
    117 HAB        77.3901   63.3676   44.3158 da         1 CLA      0.155200
    118 H93        88.1633   54.6530   39.2485 dc         1 CLA      0.069500
    119 H92        87.7029   55.5293   37.7577 dc         1 CLA      0.069500
    120 H91        88.3233   56.3555   39.1007 dc         1 CLA      0.069500
    121 H8         85.8424   56.4953   38.6700 dc         1 CLA      0.029300
    122 H72        84.3059   54.5348   39.3054 dc         1 CLA      0.044400
    123 H71        85.7704   53.4732   39.4285 dc         1 CLA      0.044400
    124 H62        86.1827   53.6122   37.1624 dc         1 CLA      0.015600
    125 H61        85.3653   55.1098   36.9324 dc         1 CLA      0.015600
    126 H52        84.1825   52.3909   37.2974 dc         1 CLA      0.033200
    127 H51        84.2468   53.2041   35.7985 dc         1 CLA      0.033200
    128 H43        80.8653   53.4381   37.7387 dc         1 CLA      0.037000
    129 H42        81.6898   51.9654   37.0734 dc         1 CLA      0.037000
    130 H41        82.0103   52.5166   38.6948 dc         1 CLA      0.037000
    131 H3A        79.7890   59.9173   37.0178 dc         1 CLA      0.041100
    132 H2A        79.0263   57.0344   36.8110 dc         1 CLA      0.083100
    133 H2         82.4619   55.9226   37.2436 da         1 CLA      0.180900
    134 H18        83.0859   61.0546   45.6042 dc         1 CLA     -0.003900
    135 H13        85.9455   56.2628   43.7936 dc         1 CLA      0.019700
    136 H12        81.3742   54.5308   34.7211 dc         1 CLA      0.120400
    137 H11        82.7828   55.6722   34.5219 dc         1 CLA      0.120400
    138 C1         67.6964   61.5092   50.1558 Z1         2 LUT      0.509236
    139 C2         66.2637   61.4698   50.8325 Z2         2 LUT     -0.434695
    140 C3         65.3867   62.7002   50.9512 Z3         2 LUT      0.437453
    141 O3         65.2875   63.1476   52.3183 S1         2 LUT     -0.547129
    142 C4         65.9799   63.8262   50.1193 Z4         2 LUT     -0.468603
    143 C5         66.7976   63.5027   48.8846 Z5         2 LUT      0.279246
    144 C6         67.4567   62.3361   48.7886 Z6         2 LUT     -0.305473
    145 C7         68.0433   61.7525   47.6125 Z7         2 LUT      0.069402
    146 C8         68.9513   62.3959   46.8414 Z8         2 LUT     -0.191631
    147 C9         69.5493   61.9674   45.5195 Z9         2 LUT      0.196698
    148 C10        70.5137   62.8166   44.9394 Y1         2 LUT     -0.208611
    149 C11        71.3276   62.7870   43.6993 Y2         2 LUT      0.030784
    150 C12        72.3433   63.6436   43.2675 Y3         2 LUT     -0.220316
    151 C13        73.2691   63.3885   42.1980 Y4         2 LUT      0.215937
    152 C14        74.3575   64.1735   42.1653 Y5         2 LUT     -0.185793
    153 C15        75.5228   64.1676   41.2720 Y6         2 LUT     -0.057835
    154 C16        68.2930   60.0351   50.0323 Y7         2 LUT     -0.405615
    155 C17        68.6013   62.2966   51.1412 Y7         2 LUT     -0.405615
    156 C18        66.3777   64.2779   47.6478 Y9         2 LUT     -0.369639
    157 C19        69.1450   60.7030   44.8930 W1         2 LUT     -0.333362
    158 C20        72.8261   62.5100   41.0525 W2         2 LUT     -0.323439
    159 C21        87.0965   64.9354   34.9639 Z1         2 LUT      0.406104
    160 C22        88.0036   64.5595   33.8033 Z2         2 LUT     -0.404965
    161 C23        87.9785   65.6029   32.6338 Z3         2 LUT      0.391255
    162 O23        88.6834   65.0207   31.5418 S1         2 LUT     -0.528210
    163 C24        86.6241   66.2154   32.4327 W6         2 LUT     -0.258361
    164 C25        85.5620   66.2115   33.2448 Z5         2 LUT      0.133546
    165 C26        85.6243   65.4075   34.5248 W8         2 LUT     -0.147008
    166 C27        84.8158   66.0257   35.6859 Z7         2 LUT      0.023843
    167 C28        83.8978   65.4168   36.5560 Z8         2 LUT     -0.216987
    168 C29        83.1285   66.0933   37.5838 Z9         2 LUT      0.206524
    169 C30        82.1075   65.4047   38.2471 Y1         2 LUT     -0.215556
    170 C31        81.2111   65.8649   39.3075 Y2         2 LUT      0.025142
    171 C32        80.1373   65.0754   39.7765 Y3         2 LUT     -0.212209
    172 C33        78.9952   65.3976   40.6835 Y4         2 LUT      0.240937
    173 C34        77.8868   64.6647   40.7025 Y5         2 LUT     -0.218862
    174 C35        76.7384   64.8898   41.4895 Y6         2 LUT     -0.023547
    175 C36        87.7169   66.1062   35.6881 Y7         2 LUT     -0.393485
    176 C37        87.1593   63.7579   35.9726 Y7         2 LUT     -0.393485
    177 C38        84.2368   66.9534   32.8765 Y9         2 LUT     -0.387526
    178 C39        83.4172   67.5456   37.9197 W1         2 LUT     -0.322618
    179 C40        79.2775   66.5563   41.6172 W2         2 LUT     -0.358472
    180 H403       78.5903   67.3517   41.4693 R7         2 LUT      0.097720
    181 H402       79.2689   66.2346   42.6975 R7         2 LUT      0.097720
    182 H401       80.2661   67.0642   41.5386 R7         2 LUT      0.097720
    183 H393       84.5306   67.5919   37.8789 R4         2 LUT      0.082505
    184 H392       82.9769   68.2809   37.2857 R4         2 LUT      0.082505
    185 H391       83.2979   67.7418   38.9829 R4         2 LUT      0.082505
    186 H383       84.0311   67.8357   33.4963 R1         2 LUT      0.104030
    187 H382       84.2671   67.4080   31.8866 R1         2 LUT      0.104030
    188 H381       83.3733   66.2755   32.8825 R1         2 LUT      0.104030
    189 H373       86.4853   63.9279   36.7690 T4         2 LUT      0.089537
    190 H372       86.9548   62.7946   35.5861 T4         2 LUT      0.089537
    191 H371       88.1744   63.6256   36.3177 T4         2 LUT      0.089537
    192 H363       88.7563   65.8552   35.8849 T4         2 LUT      0.089537
    193 H362       87.6631   66.9089   34.9614 T4         2 LUT      0.089537
    194 H361       87.2888   66.4261   36.6504 T4         2 LUT      0.089537
    195 H222       89.0397   64.3970   34.0067 U2         2 LUT      0.127376
    196 H221       87.6290   63.6031   33.3706 U2         2 LUT      0.127376
    197 H203       72.4252   63.0075   40.1485 R7         2 LUT      0.087068
    198 H202       73.6838   61.9725   40.6901 R7         2 LUT      0.087068
    199 H201       72.0917   61.7221   41.2793 R7         2 LUT      0.087068
    200 H193       68.1765   60.8102   44.5093 R4         2 LUT      0.089716
    201 H192       69.6693   60.2320   44.0448 R4         2 LUT      0.089716
    202 H191       69.0242   59.9038   45.6390 R4         2 LUT      0.089716
    203 H183       67.0332   65.1303   47.5006 R1         2 LUT      0.094572
    204 H182       66.4323   63.7202   46.7225 R1         2 LUT      0.094572
    205 H181       65.3411   64.6703   47.5653 R1         2 LUT      0.094572
    206 H173       68.2231   63.2068   51.4601 T4         2 LUT      0.093752
    207 H172       68.8340   61.6482   52.0019 T4         2 LUT      0.093752
    208 H171       69.5912   62.5114   50.6374 T4         2 LUT      0.093752
    209 H163       67.9224   59.3183   50.7142 T4         2 LUT      0.093752
    210 H162       68.0065   59.5565   49.0430 T4         2 LUT      0.093752
    211 H161       69.4033   59.9480   49.9482 T4         2 LUT      0.093752
    212 HO3        64.7978   62.4499   52.8462 Q1         2 LUT      0.300121
    213 H8         69.2379   63.3656   47.2075 U7         2 LUT      0.080784
    214 H7         67.7491   60.8072   47.1866 U6         2 LUT      0.042190
    215 H42        65.2249   64.6312   49.9405 U5         2 LUT      0.145166
    216 H41        66.6033   64.4184   50.7195 U5         2 LUT      0.145166
    217 H35        76.7476   65.6528   42.2858 T3         2 LUT      0.077919
    218 H34        77.7524   63.8017   40.0600 T2         2 LUT      0.073626
    219 H32        80.1316   64.0545   39.3453 T1         2 LUT      0.092510
    220 H31        81.2975   66.9054   39.5484 U9         2 LUT      0.070048
    221 H30        81.9116   64.3283   37.9898 U8         2 LUT      0.085442
    222 H3         64.4305   62.3576   50.5142 U3         2 LUT     -0.031596
    223 H28        83.6662   64.3747   36.3112 U7         2 LUT      0.084728
    224 H27        85.1239   67.0666   35.9175 U6         2 LUT      0.087291
    225 H26        85.1959   64.4124   34.2977 Q6         2 LUT      0.075325
    226 H24        86.6203   66.7582   31.4780 Q5         2 LUT      0.094482
    227 H23        88.7387   66.4087   32.9299 U3         2 LUT     -0.024869
    228 H22        65.7559   60.7853   50.1891 U2         2 LUT      0.127376
    229 H21        66.3565   61.0143   51.8447 U2         2 LUT      0.127376
    230 H15        75.5320   63.3763   40.5558 T3         2 LUT      0.093200
    231 H14        74.3623   64.9971   42.8744 T2         2 LUT      0.068865
    232 H12        72.5744   64.4800   43.8712 T1         2 LUT      0.095507
    233 H11        71.3887   61.7752   43.2292 U9         2 LUT      0.068930
    234 H10        70.7440   63.7290   45.4610 U8         2 LUT      0.083911
    235 H1         88.1797   64.5268   30.8826 Q1         2 LUT      0.297311
@<TRIPOS>BOND
    1     6     1 1
    2     7     2 1
    3     8     3 1
    4     9     4 1
    5    11     4 1
    6    12     6 1
    7    13     9 1
    8    16     9 1
    9    25     5 1
   10    25    16 1
   11    26    10 1
   12    26    17 1
   13    27    18 1
   14    28    14 1
   15    28    19 1
   16    29    12 1
   17    30    13 1
   18    31    24 1
   19    32     1 1
   20    32    25 1
   21    33    21 1
   22    33    26 1
   23    34    22 1
   24    34    27 1
   25    35    23 1
   26    35    28 1
   27    36    12 1
   28    36    24 1
   29    37    13 1
   30    37    15 1
   31    38    31 1
   32    39    20 1
   33    39    32 1
   34    40     2 1
   35    40    33 1
   36    41     3 1
   37    41    34 1
   38    42     4 1
   39    42    35 1
   40    43    38 1
   41    44     5 1
   42    44    17 1
   43    44    39 1
   44    45    10 1
   45    45    18 1
   46    45    40 1
   47    46    19 1
   48    46    41 1
   49    47    14 1
   50    47    16 1
   51    47    42 1
   52    48    38 1
   53    49    48 1
   54    50    49 1
   55    51    50 1
   56    52    51 1
   57    53    51 1
   58    54    53 1
   59    55    54 1
   60    56    55 1
   61    57    56 1
   62    58    56 1
   63    59    58 1
   64    60    59 1
   65    61    60 1
   66    62    61 1
   67    63    61 1
   68    64    27 1
   69    64    46 1
   70    65     5 1
   71    65    10 1
   72    65    64 1
   73    65    14 1
   74    66    23 1
   75    67    23 1
   76    68    23 1
   77    69    22 1
   78    70    22 1
   79    71    22 1
   80    72    21 1
   81    73    21 1
   82    74    21 1
   83    75    20 1
   84    76    20 1
   85    77    20 1
   86    78    15 1
   87    79    15 1
   88    80    15 1
   89    81     8 1
   90    82     8 1
   91    83     8 1
   92    84     7 1
   93    85     7 1
   94    86     6 1
   95    87     6 1
   96    88     3 1
   97    89     3 1
   98    90     1 1
   99    91     1 1
  100    92    63 1
  101    93    63 1
  102    94    63 1
  103    95    62 1
  104    96    62 1
  105    97    62 1
  106    98    60 1
  107    99    60 1
  108   100    59 1
  109   101    59 1
  110   102    58 1
  111   103    58 1
  112   104    57 1
  113   105    57 1
  114   106    57 1
  115   107    55 1
  116   108    55 1
  117   109    54 1
  118   110    54 1
  119   111    53 1
  120   112    53 1
  121   113    19 1
  122   114    18 1
  123   115    17 1
  124   116     9 1
  125   117     2 1
  126   118    52 1
  127   119    52 1
  128   120    52 1
  129   121    51 1
  130   122    50 1
  131   123    50 1
  132   124    49 1
  133   125    49 1
  134   126    48 1
  135   127    48 1
  136   128    43 1
  137   129    43 1
  138   130    43 1
  139   131    39 1
  140   132    32 1
  141   133    31 1
  142   134    61 1
  143   135    56 1
  144   136    24 1
  145   137    24 1
  146   139   138 1
  147   140   139 1
  148   141   140 1
  149   142   140 1
  150   143   142 1
  151   144   138 1
  152   144   143 1
  153   145   144 1
  154   146   145 1
  155   147   146 1
  156   148   147 1
  157   149   148 1
  158   150   149 1
  159   151   150 1
  160   152   151 1
  161   153   152 1
  162   154   138 1
  163   155   138 1
  164   156   143 1
  165   157   147 1
  166   158   151 1
  167   160   159 1
  168   161   160 1
  169   162   161 1
  170   163   161 1
  171   164   163 1
  172   165   159 1
  173   165   164 1
  174   166   165 1
  175   167   166 1
  176   168   167 1
  177   169   168 1
  178   170   169 1
  179   171   170 1
  180   172   171 1
  181   173   172 1
  182   174   153 1
  183   174   173 1
  184   175   159 1
  185   176   159 1
  186   177   164 1
  187   178   168 1
  188   179   172 1
  189   180   179 1
  190   181   179 1
  191   182   179 1
  192   183   178 1
  193   184   178 1
  194   185   178 1
  195   186   177 1
  196   187   177 1
  197   188   177 1
  198   189   176 1
  199   190   176 1
  200   191   176 1
  201   192   175 1
  202   193   175 1
  203   194   175 1
  204   195   160 1
  205   196   160 1
  206   197   158 1
  207   198   158 1
  208   199   158 1
  209   200   157 1
  210   201   157 1
  211   202   157 1
  212   203   156 1
  213   204   156 1
  214   205   156 1
  215   206   155 1
  216   207   155 1
  217   208   155 1
  218   209   154 1
  219   210   154 1
  220   211   154 1
  221   212   141 1
  222   213   146 1
  223   214   145 1
  224   215   142 1
  225   216   142 1
  226   217   174 1
  227   218   173 1
  228   219   171 1
  229   220   170 1
  230   221   169 1
  231   222   140 1
  232   223   167 1
  233   224   166 1
  234   225   165 1
  235   226   163 1
  236   227   161 1
  237   228   139 1
  238   229   139 1
  239   230   153 1
  240   231   152 1
  241   232   150 1
  242   233   149 1
  243   234   148 1
  244   235   162 1
  245   65    153 1
  246   65    174 1
@<TRIPOS>SUBSTRUCTURE
      1 CLA               1 ****               0 ****  **** 
      2 LUT             138 ****               0 ****  **** 
