@<TRIPOS>MOLECULE
Cpptraj generated mol2 file.
  235   246     2     0     0
SMALL
USER_CHARGES


@<TRIPOS>ATOM
      1 CAA        78.3609   57.6854   35.3534 a2         1 CLA     -0.055900
      2 CAB        77.9707   61.3101   44.6056 c8         1 CLA     -0.148500
      3 CAC        71.1560   57.5502   43.5079 a2         1 CLA     -0.012600
      4 CAD        74.2647   55.2360   36.4301 ck         1 CLA      0.398800
      5 NA         77.2740   58.2322   38.7683 ns         1 CLA     -0.225500
      6 CBA        79.7214   57.8549   34.5718 a2         1 CLA     -0.135000
      7 CBB        79.0795   61.3361   45.3936 c0         1 CLA     -0.395200
      8 CBC        71.4184   56.0579   43.8828 a3         1 CLA     -0.037700
      9 CBD        75.8198   55.6807   36.2131 a1         1 CLA     -0.053900
     10 NB         77.2115   59.4050   41.4486 nm         1 CLA     -0.295700
     11 OBD        73.6795   54.4625   35.6638 o2         1 CLA     -0.494600
     12 CGA        80.3613   56.5891   34.1481 c4         1 CLA      0.827000
     13 CGD        76.7762   54.4816   35.9538 c4         1 CLA      0.655300
     14 ND         74.4971   57.3532   39.1913 nm         1 CLA     -0.291600
     15 CED        77.1447   52.2404   36.6754 a3         1 CLA      0.005400
     16 CHA        76.1038   56.6921   37.3819 cs         1 CLA     -0.123800
     17 CHB        78.9584   59.6223   39.7684 aa         1 CLA     -0.291900
     18 CHC        75.6292   59.8491   43.2672 aa         1 CLA     -0.090400
     19 CHD        72.6187   57.0573   40.7314 aa         1 CLA     -0.052000
     20 CMA        80.7945   58.0193   38.0474 a3         1 CLA     -0.230700
     21 CMB        80.3075   61.3442   42.1654 a3         1 CLA     -0.180800
     22 CMC        73.1024   59.6738   45.0003 a3         1 CLA     -0.134000
     23 CMD        71.3550   55.4450   38.2635 a3         1 CLA     -0.141100
     24 C1         81.2529   54.5977   35.0419 a2         1 CLA      0.023000
     25 C1A        77.2492   57.3514   37.7057 ac         1 CLA     -0.015100
     26 C1B        78.3452   59.8703   41.0209 cr         1 CLA      0.054700
     27 C1C        74.4757   59.1752   42.8337 cn         1 CLA     -0.005600
     28 C1D        73.2463   56.7197   39.5686 ap         1 CLA     -0.047300
     29 O1A        80.6077   56.1525   33.0126 o2         1 CLA     -0.610800
     30 O1D        77.5895   54.3152   35.0197 o2         1 CLA     -0.558200
     31 C2         81.1716   53.8016   36.2836 c8         1 CLA     -0.325100
     32 C2A        78.5387   57.4347   36.8995 a1         1 CLA      0.098600
     33 C2B        78.9429   60.6890   42.1489 cb         1 CLA      0.088500
     34 C2C        73.3065   59.0386   43.6788 cb         1 CLA      0.053700
     35 C2D        72.7554   55.9882   38.5021 cb         1 CLA      0.058900
     36 O2A        80.4602   55.8418   35.3083 o1         1 CLA     -0.437200
     37 O2D        76.5933   53.5675   36.8902 o1         1 CLA     -0.357600
     38 C3         82.1743   53.2387   36.9142 c5         1 CLA      0.031200
     39 C3A        79.3553   58.4722   37.6355 a1         1 CLA      0.166800
     40 C3B        78.0077   60.7105   43.1901 cb         1 CLA      0.035000
     41 C3C        72.4661   58.1840   42.9302 cb         1 CLA     -0.089900
     42 C3D        73.8583   55.8117   37.6277 cb         1 CLA     -0.035900
     43 C4         82.6441   51.9129   36.4002 a3         1 CLA     -0.053300
     44 C4A        78.4866   58.8423   38.7705 ac         1 CLA      0.001800
     45 C4B        76.8780   60.0731   42.6096 cn         1 CLA     -0.020900
     46 C4C        73.1373   57.9024   41.7101 cr         1 CLA     -0.044400
     47 C4D        74.9099   56.6915   38.1428 c6         1 CLA     -0.046000
     48 C5         82.9072   53.8579   38.1184 a2         1 CLA     -0.070400
     49 C6         84.0847   54.8013   37.8988 a2         1 CLA      0.043900
     50 C7         84.5124   55.5404   39.1245 a2         1 CLA     -0.150000
     51 C8         84.8061   57.0230   38.9781 a1         1 CLA      0.064200
     52 C9         85.9229   57.3179   37.9150 a3         1 CLA     -0.259300
     53 C10        85.1497   57.7773   40.3511 a2         1 CLA     -0.071900
     54 C11        84.1095   57.5378   41.4204 a2         1 CLA      0.014500
     55 C12        84.0987   58.6789   42.4822 a2         1 CLA     -0.112100
     56 C13        85.2690   58.6765   43.4393 a1         1 CLA      0.089200
     57 C14        85.4283   57.3226   44.2748 a3         1 CLA     -0.239100
     58 C15        85.2189   59.9457   44.3831 a2         1 CLA     -0.102200
     59 C16        83.9975   60.1163   45.3166 a2         1 CLA      0.023900
     60 C17        84.1639   61.4577   46.0600 a2         1 CLA     -0.105700
     61 C18        82.9660   62.0928   46.8491 a1         1 CLA      0.206800
     62 C19        82.0732   60.9388   47.4645 a3         1 CLA     -0.280100
     63 C20        83.5346   62.9693   47.9664 a3         1 CLA     -0.280100
     64 NC         74.3384   58.5539   41.6562 nx         1 CLA     -0.309200
     65 MG         75.7452   58.4771   40.2732 mg         1 CLA      0.895000
     66 HMD3       70.8538   55.3590   39.1617 dc         1 CLA      0.064300
     67 HMD2       70.7475   56.0357   37.4932 dc         1 CLA      0.064300
     68 HMD1       71.5391   54.4812   37.8154 dc         1 CLA      0.064300
     69 HMC3       73.4269   58.9905   45.7471 dc         1 CLA      0.052100
     70 HMC2       73.5189   60.6998   45.2004 dc         1 CLA      0.052100
     71 HMC1       72.0398   59.6811   45.1167 dc         1 CLA      0.052100
     72 HMB3       80.7263   61.6230   41.2155 dc         1 CLA      0.063600
     73 HMB2       80.1415   62.2678   42.6566 dc         1 CLA      0.063600
     74 HMB1       81.0221   60.7312   42.6642 dc         1 CLA      0.063600
     75 HMA3       81.3327   58.8281   38.5876 dc         1 CLA      0.058300
     76 HMA2       80.8002   57.1262   38.6115 dc         1 CLA      0.058300
     77 HMA1       81.4239   57.8001   37.1704 dc         1 CLA      0.058300
     78 HED3       78.2039   52.2772   37.0299 dc         1 CLA      0.079300
     79 HED2       76.5507   51.4785   37.1754 dc         1 CLA      0.079300
     80 HED1       77.2154   51.8613   35.6137 dc         1 CLA      0.079300
     81 HBC3       70.6394   55.4876   44.4251 dc         1 CLA      0.016300
     82 HBC2       71.7594   55.4865   43.0210 dc         1 CLA      0.016300
     83 HBC1       72.3263   56.1759   44.5106 dc         1 CLA      0.016300
     84 HBB2       79.0386   61.6439   46.4211 da         1 CLA      0.183000
     85 HBB1       80.0645   60.8982   45.0496 da         1 CLA      0.183000
     86 HBA2       79.3733   58.4467   33.6947 dc         1 CLA      0.029400
     87 HBA1       80.4700   58.4283   35.0943 dc         1 CLA      0.029400
     88 HAC2       70.8911   58.0830   44.4031 dc         1 CLA      0.029300
     89 HAC1       70.4079   57.6351   42.8189 dc         1 CLA      0.029300
     90 HAA2       77.8281   56.8469   34.8774 dc         1 CLA      0.028700
     91 HAA1       77.7001   58.5343   35.1599 dc         1 CLA      0.028700
     92 H203       83.8852   62.1594   48.5970 dc         1 CLA      0.065600
     93 H202       84.3681   63.5135   47.6151 dc         1 CLA      0.065600
     94 H201       82.7658   63.5685   48.3925 dc         1 CLA      0.065600
     95 H193       81.5309   61.2922   48.3337 dc         1 CLA      0.065600
     96 H192       81.4033   60.4483   46.7268 dc         1 CLA      0.065600
     97 H191       82.8379   60.1549   47.7999 dc         1 CLA      0.065600
     98 H172       84.9832   61.3725   46.7621 dc         1 CLA      0.027600
     99 H171       84.4410   62.2582   45.3239 dc         1 CLA      0.027600
    100 H162       83.0067   60.2256   44.7731 dc         1 CLA      0.002900
    101 H161       84.0462   59.2671   45.9990 dc         1 CLA      0.002900
    102 H152       86.1263   59.9734   44.9103 dc         1 CLA      0.029100
    103 H151       85.3312   60.7152   43.6537 dc         1 CLA      0.029100
    104 H143       85.5984   56.6055   43.4691 dc         1 CLA      0.063600
    105 H142       86.3490   57.3566   44.8901 dc         1 CLA      0.063600
    106 H141       84.5445   57.1386   44.8804 dc         1 CLA      0.063600
    107 H122       83.9970   59.6929   42.0216 dc         1 CLA      0.032500
    108 H121       83.2566   58.6975   43.0929 dc         1 CLA      0.032500
    109 H112       83.0940   57.4815   41.0156 dc         1 CLA      0.006600
    110 H111       84.1673   56.5453   41.7909 dc         1 CLA      0.006600
    111 H102       86.1043   57.4518   40.7351 dc         1 CLA      0.024100
    112 H101       85.0769   58.8977   40.1810 dc         1 CLA      0.024100
    113 HHD        71.5891   56.6252   40.9095 da         1 CLA      0.174300
    114 HHC        75.6155   60.2723   44.2577 da         1 CLA      0.136800
    115 HHB        79.9044   60.1098   39.6298 da         1 CLA      0.138300
    116 HBD        75.7462   56.1679   35.2554 dc         1 CLA      0.107700
    117 HAB        77.0341   61.6467   44.9906 da         1 CLA      0.155200
    118 H93        86.0458   58.3963   37.7496 dc         1 CLA      0.069500
    119 H92        86.8241   56.9746   38.3919 dc         1 CLA      0.069500
    120 H91        85.8535   56.8398   36.9418 dc         1 CLA      0.069500
    121 H8         83.8345   57.4286   38.6156 dc         1 CLA      0.029300
    122 H72        83.7761   55.4822   39.8922 dc         1 CLA      0.044400
    123 H71        85.4821   55.1351   39.4461 dc         1 CLA      0.044400
    124 H62        84.9700   54.2230   37.6308 dc         1 CLA      0.015600
    125 H61        83.9891   55.4824   37.0822 dc         1 CLA      0.015600
    126 H52        82.0803   54.4438   38.6437 dc         1 CLA      0.033200
    127 H51        83.2218   53.0412   38.7394 dc         1 CLA      0.033200
    128 H43        82.8193   51.2140   37.2249 dc         1 CLA      0.037000
    129 H42        82.0662   51.6525   35.5470 dc         1 CLA      0.037000
    130 H41        83.5976   52.2519   36.0136 dc         1 CLA      0.037000
    131 H3A        79.5645   59.3239   37.0104 dc         1 CLA      0.041100
    132 H2A        79.0701   56.5015   36.9819 dc         1 CLA      0.083100
    133 H2         80.2050   53.5145   36.6175 da         1 CLA      0.180900
    134 H18        82.4526   62.6876   46.0739 dc         1 CLA     -0.003900
    135 H13        86.1695   58.8553   42.9205 dc         1 CLA      0.019700
    136 H12        80.6919   54.1308   34.2381 dc         1 CLA      0.120400
    137 H11        82.2879   54.8979   34.7570 dc         1 CLA      0.120400
    138 C1         67.8125   60.8997   50.0231 Z1         2 LUT      0.509236
    139 C2         66.4010   60.8790   50.7427 Z2         2 LUT     -0.434695
    140 C3         65.8021   62.2832   51.1390 Z3         2 LUT      0.437453
    141 O3         66.0561   62.7159   52.5180 S1         2 LUT     -0.547129
    142 C4         66.3853   63.3539   50.2875 Z4         2 LUT     -0.468603
    143 C5         66.9763   63.0318   48.9629 Z5         2 LUT      0.279246
    144 C6         67.7165   61.8967   48.8294 Z6         2 LUT     -0.305473
    145 C7         67.8950   61.3143   47.4666 Z7         2 LUT      0.069402
    146 C8         68.7784   61.8758   46.6312 Z8         2 LUT     -0.191631
    147 C9         69.3655   61.4863   45.3751 Z9         2 LUT      0.196698
    148 C10        70.4331   62.2346   44.8864 Y1         2 LUT     -0.208611
    149 C11        71.1983   62.0176   43.7207 Y2         2 LUT      0.030784
    150 C12        72.4288   62.6446   43.4907 Y3         2 LUT     -0.220316
    151 C13        73.4282   62.4099   42.4099 Y4         2 LUT      0.215937
    152 C14        74.6281   63.1160   42.6213 Y5         2 LUT     -0.185793
    153 C15        75.7748   63.0341   41.7805 Y6         2 LUT     -0.057835
    154 C16        68.1113   59.3998   49.5609 Y7         2 LUT     -0.405615
    155 C17        68.7188   61.3861   51.2388 Y7         2 LUT     -0.405615
    156 C18        66.1165   63.6465   47.8924 Y9         2 LUT     -0.369639
    157 C19        68.8826   60.2122   44.7863 W1         2 LUT     -0.333362
    158 C20        72.9713   61.7859   41.1212 W2         2 LUT     -0.323439
    159 C21        87.4333   65.1210   35.8708 Z1         2 LUT      0.406104
    160 C22        88.0641   64.3830   34.6632 Z2         2 LUT     -0.404965
    161 C23        88.0015   65.2284   33.3252 Z3         2 LUT      0.391255
    162 O23        88.2585   64.2681   32.3434 S1         2 LUT     -0.528210
    163 C24        86.7524   66.1021   33.1878 W6         2 LUT     -0.258361
    164 C25        85.9281   66.3770   34.2037 Z5         2 LUT      0.133546
    165 C26        86.0234   65.6196   35.4605 W8         2 LUT     -0.147008
    166 C27        85.1552   66.1221   36.6539 Z7         2 LUT      0.023843
    167 C28        83.9527   65.5856   37.0271 Z8         2 LUT     -0.216987
    168 C29        83.0925   66.1220   38.0936 Z9         2 LUT      0.206524
    169 C30        82.0849   65.3939   38.6225 Y1         2 LUT     -0.215556
    170 C31        81.1566   65.5767   39.7297 Y2         2 LUT      0.025142
    171 C32        79.9875   64.8465   39.8384 Y3         2 LUT     -0.212209
    172 C33        79.0412   64.8881   40.9367 Y4         2 LUT      0.240937
    173 C34        77.9444   64.0966   40.9255 Y5         2 LUT     -0.218862
    174 C35        76.8893   63.9025   41.8515 Y6         2 LUT     -0.023547
    175 C36        88.2899   66.3340   36.2507 Y7         2 LUT     -0.393485
    176 C37        87.4582   64.0259   36.9831 Y7         2 LUT     -0.393485
    177 C38        84.5502   66.9587   33.8170 Y9         2 LUT     -0.387526
    178 C39        83.5433   67.4353   38.7822 W1         2 LUT     -0.322618
    179 C40        79.3978   65.8554   42.0191 W2         2 LUT     -0.358472
    180 H403       79.2513   66.8626   41.6893 R7         2 LUT      0.097720
    181 H402       78.6790   65.7221   42.8232 R7         2 LUT      0.097720
    182 H401       80.3865   65.6546   42.5405 R7         2 LUT      0.097720
    183 H393       82.8001   68.0041   39.3101 R4         2 LUT      0.082505
    184 H392       84.3942   67.2794   39.5083 R4         2 LUT      0.082505
    185 H391       84.0619   68.1062   38.0793 R4         2 LUT      0.082505
    186 H383       83.7570   66.1784   33.7005 R1         2 LUT      0.104030
    187 H382       84.1355   67.6120   34.6134 R1         2 LUT      0.104030
    188 H381       84.6458   67.5150   32.9146 R1         2 LUT      0.104030
    189 H373       88.4445   63.6049   37.1280 T4         2 LUT      0.089537
    190 H372       87.1743   64.2128   37.9896 T4         2 LUT      0.089537
    191 H371       86.9171   63.1748   36.7453 T4         2 LUT      0.089537
    192 H363       88.3501   67.1203   35.5300 T4         2 LUT      0.089537
    193 H362       88.0150   66.6531   37.2408 T4         2 LUT      0.089537
    194 H361       89.3416   66.1677   36.2096 T4         2 LUT      0.089537
    195 H222       89.0823   64.1658   34.8169 U2         2 LUT      0.127376
    196 H221       87.4534   63.5481   34.3859 U2         2 LUT      0.127376
    197 H203       73.7734   61.3819   40.5047 R7         2 LUT      0.087068
    198 H202       72.3695   60.9485   41.4374 R7         2 LUT      0.087068
    199 H201       72.3633   62.5388   40.6245 R7         2 LUT      0.087068
    200 H193       69.4503   59.8763   43.9731 R4         2 LUT      0.089716
    201 H192       69.0080   59.4211   45.4995 R4         2 LUT      0.089716
    202 H191       67.9274   60.1799   44.4864 R4         2 LUT      0.089716
    203 H183       65.9325   64.6925   48.0980 R1         2 LUT      0.094572
    204 H182       66.5351   63.7204   46.8955 R1         2 LUT      0.094572
    205 H181       65.0805   63.2701   47.8798 R1         2 LUT      0.094572
    206 H173       69.7744   61.3944   50.9547 T4         2 LUT      0.093752
    207 H172       68.4816   62.3302   51.6401 T4         2 LUT      0.093752
    208 H171       68.6005   60.7404   52.1406 T4         2 LUT      0.093752
    209 H163       67.7791   58.7556   50.4151 T4         2 LUT      0.093752
    210 H162       67.6111   58.9461   48.6345 T4         2 LUT      0.093752
    211 H161       69.1330   59.2734   49.2808 T4         2 LUT      0.093752
    212 HO3        65.7350   62.0412   53.1519 Q1         2 LUT      0.300121
    213 H8         69.1918   62.7946   47.0573 U7         2 LUT      0.080784
    214 H7         67.4638   60.3707   47.1273 U6         2 LUT      0.042190
    215 H42        65.5859   64.1291   50.2140 U5         2 LUT      0.145166
    216 H41        67.1164   63.9295   50.8151 U5         2 LUT      0.145166
    217 H35        76.8056   64.5064   42.7298 T3         2 LUT      0.077919
    218 H34        77.8920   63.4861   40.0522 T2         2 LUT      0.073626
    219 H32        79.9237   63.9597   39.1397 T1         2 LUT      0.092510
    220 H31        81.4259   66.3781   40.4668 U9         2 LUT      0.070048
    221 H30        81.9072   64.3867   38.2601 U8         2 LUT      0.085442
    222 H3         64.6815   62.1585   50.9576 U3         2 LUT     -0.031596
    223 H28        83.5714   64.6708   36.6023 U7         2 LUT      0.084728
    224 H27        85.4438   67.0660   37.0070 U6         2 LUT      0.087291
    225 H26        85.5191   64.6980   35.1038 Q6         2 LUT      0.075325
    226 H24        86.6300   66.5105   32.1850 Q5         2 LUT      0.094482
    227 H23        88.7288   66.0682   33.3935 U3         2 LUT     -0.024869
    228 H22        65.7588   60.5555   49.9387 U2         2 LUT      0.127376
    229 H21        66.4461   60.2091   51.6229 U2         2 LUT      0.127376
    230 H15        75.7799   62.4169   40.8785 T3         2 LUT      0.093200
    231 H14        74.8796   63.7382   43.5283 T2         2 LUT      0.068865
    232 H12        72.6605   63.2813   44.3855 T1         2 LUT      0.095507
    233 H11        70.9369   61.3135   43.0015 U9         2 LUT      0.068930
    234 H10        70.7763   63.0868   45.4172 U8         2 LUT      0.083911
    235 H1         88.6719   64.5527   31.5029 Q1         2 LUT      0.297311
@<TRIPOS>BOND
    1     6     1 1
    2     7     2 1
    3     8     3 1
    4     9     4 1
    5    11     4 1
    6    12     6 1
    7    13     9 1
    8    16     9 1
    9    25     5 1
   10    25    16 1
   11    26    10 1
   12    26    17 1
   13    27    18 1
   14    28    14 1
   15    28    19 1
   16    29    12 1
   17    30    13 1
   18    31    24 1
   19    32     1 1
   20    32    25 1
   21    33    21 1
   22    33    26 1
   23    34    22 1
   24    34    27 1
   25    35    23 1
   26    35    28 1
   27    36    12 1
   28    36    24 1
   29    37    13 1
   30    37    15 1
   31    38    31 1
   32    39    20 1
   33    39    32 1
   34    40     2 1
   35    40    33 1
   36    41     3 1
   37    41    34 1
   38    42     4 1
   39    42    35 1
   40    43    38 1
   41    44     5 1
   42    44    17 1
   43    44    39 1
   44    45    10 1
   45    45    18 1
   46    45    40 1
   47    46    19 1
   48    46    41 1
   49    47    14 1
   50    47    16 1
   51    47    42 1
   52    48    38 1
   53    49    48 1
   54    50    49 1
   55    51    50 1
   56    52    51 1
   57    53    51 1
   58    54    53 1
   59    55    54 1
   60    56    55 1
   61    57    56 1
   62    58    56 1
   63    59    58 1
   64    60    59 1
   65    61    60 1
   66    62    61 1
   67    63    61 1
   68    64    27 1
   69    64    46 1
   70    65     5 1
   71    65    10 1
   72    65    64 1
   73    65    14 1
   74    66    23 1
   75    67    23 1
   76    68    23 1
   77    69    22 1
   78    70    22 1
   79    71    22 1
   80    72    21 1
   81    73    21 1
   82    74    21 1
   83    75    20 1
   84    76    20 1
   85    77    20 1
   86    78    15 1
   87    79    15 1
   88    80    15 1
   89    81     8 1
   90    82     8 1
   91    83     8 1
   92    84     7 1
   93    85     7 1
   94    86     6 1
   95    87     6 1
   96    88     3 1
   97    89     3 1
   98    90     1 1
   99    91     1 1
  100    92    63 1
  101    93    63 1
  102    94    63 1
  103    95    62 1
  104    96    62 1
  105    97    62 1
  106    98    60 1
  107    99    60 1
  108   100    59 1
  109   101    59 1
  110   102    58 1
  111   103    58 1
  112   104    57 1
  113   105    57 1
  114   106    57 1
  115   107    55 1
  116   108    55 1
  117   109    54 1
  118   110    54 1
  119   111    53 1
  120   112    53 1
  121   113    19 1
  122   114    18 1
  123   115    17 1
  124   116     9 1
  125   117     2 1
  126   118    52 1
  127   119    52 1
  128   120    52 1
  129   121    51 1
  130   122    50 1
  131   123    50 1
  132   124    49 1
  133   125    49 1
  134   126    48 1
  135   127    48 1
  136   128    43 1
  137   129    43 1
  138   130    43 1
  139   131    39 1
  140   132    32 1
  141   133    31 1
  142   134    61 1
  143   135    56 1
  144   136    24 1
  145   137    24 1
  146   139   138 1
  147   140   139 1
  148   141   140 1
  149   142   140 1
  150   143   142 1
  151   144   138 1
  152   144   143 1
  153   145   144 1
  154   146   145 1
  155   147   146 1
  156   148   147 1
  157   149   148 1
  158   150   149 1
  159   151   150 1
  160   152   151 1
  161   153   152 1
  162   154   138 1
  163   155   138 1
  164   156   143 1
  165   157   147 1
  166   158   151 1
  167   160   159 1
  168   161   160 1
  169   162   161 1
  170   163   161 1
  171   164   163 1
  172   165   159 1
  173   165   164 1
  174   166   165 1
  175   167   166 1
  176   168   167 1
  177   169   168 1
  178   170   169 1
  179   171   170 1
  180   172   171 1
  181   173   172 1
  182   174   153 1
  183   174   173 1
  184   175   159 1
  185   176   159 1
  186   177   164 1
  187   178   168 1
  188   179   172 1
  189   180   179 1
  190   181   179 1
  191   182   179 1
  192   183   178 1
  193   184   178 1
  194   185   178 1
  195   186   177 1
  196   187   177 1
  197   188   177 1
  198   189   176 1
  199   190   176 1
  200   191   176 1
  201   192   175 1
  202   193   175 1
  203   194   175 1
  204   195   160 1
  205   196   160 1
  206   197   158 1
  207   198   158 1
  208   199   158 1
  209   200   157 1
  210   201   157 1
  211   202   157 1
  212   203   156 1
  213   204   156 1
  214   205   156 1
  215   206   155 1
  216   207   155 1
  217   208   155 1
  218   209   154 1
  219   210   154 1
  220   211   154 1
  221   212   141 1
  222   213   146 1
  223   214   145 1
  224   215   142 1
  225   216   142 1
  226   217   174 1
  227   218   173 1
  228   219   171 1
  229   220   170 1
  230   221   169 1
  231   222   140 1
  232   223   167 1
  233   224   166 1
  234   225   165 1
  235   226   163 1
  236   227   161 1
  237   228   139 1
  238   229   139 1
  239   230   153 1
  240   231   152 1
  241   232   150 1
  242   233   149 1
  243   234   148 1
  244   235   162 1
  245   65    153 1
  246   65    174 1
@<TRIPOS>SUBSTRUCTURE
      1 CLA               1 ****               0 ****  **** 
      2 LUT             138 ****               0 ****  **** 
