@<TRIPOS>MOLECULE
Cpptraj generated mol2 file.
  235   246     2     0     0
SMALL
USER_CHARGES


@<TRIPOS>ATOM
      1 CAA        78.6030   58.1785   35.3722 a2         1 CLA     -0.055900
      2 CAB        77.6236   61.8022   44.5445 c8         1 CLA     -0.148500
      3 CAC        71.0661   57.4078   43.4115 a2         1 CLA     -0.012600
      4 CAD        74.6276   55.2411   36.3774 ck         1 CLA      0.398800
      5 NA         77.3504   58.4128   38.8169 ns         1 CLA     -0.225500
      6 CBA        80.0065   58.0786   34.6147 a2         1 CLA     -0.135000
      7 CBB        78.7530   61.7854   45.2766 c0         1 CLA     -0.395200
      8 CBC        71.1130   55.8620   43.7298 a3         1 CLA     -0.037700
      9 CBD        76.0419   55.8652   36.2181 a1         1 CLA     -0.053900
     10 NB         76.8519   60.1023   41.3462 nm         1 CLA     -0.295700
     11 OBD        74.1172   54.4832   35.5564 o2         1 CLA     -0.494600
     12 CGA        80.4916   56.7009   34.4146 c4         1 CLA      0.827000
     13 CGD        77.0556   54.7981   36.1517 c4         1 CLA      0.655300
     14 ND         74.6241   57.3628   39.2397 nm         1 CLA     -0.291600
     15 CED        77.6354   52.5861   36.8336 a3         1 CLA      0.005400
     16 CHA        76.2372   56.8327   37.3938 cs         1 CLA     -0.123800
     17 CHB        78.8629   60.0237   39.9540 aa         1 CLA     -0.291900
     18 CHC        75.4068   60.1848   43.2611 aa         1 CLA     -0.090400
     19 CHD        72.6240   57.0666   40.6607 aa         1 CLA     -0.052000
     20 CMA        80.8266   58.0852   38.3303 a3         1 CLA     -0.230700
     21 CMB        80.0239   61.8548   42.2664 a3         1 CLA     -0.180800
     22 CMC        73.0211   59.4068   45.1077 a3         1 CLA     -0.134000
     23 CMD        71.8433   54.8365   38.5671 a3         1 CLA     -0.141100
     24 C1         81.6288   54.8824   35.4911 a2         1 CLA      0.023000
     25 C1A        77.3083   57.6466   37.6608 ac         1 CLA     -0.015100
     26 C1B        78.1622   60.4637   41.0707 cr         1 CLA      0.054700
     27 C1C        74.2867   59.4193   42.8071 cn         1 CLA     -0.005600
     28 C1D        73.3634   56.7504   39.4910 ap         1 CLA     -0.047300
     29 O1A        80.4752   56.0612   33.4022 o2         1 CLA     -0.610800
     30 O1D        78.1052   54.8153   35.4790 o2         1 CLA     -0.558200
     31 C2         82.3068   54.8768   36.8365 c8         1 CLA     -0.325100
     32 C2A        78.6582   57.7137   36.8953 a1         1 CLA      0.098600
     33 C2B        78.6572   61.2819   42.2322 cb         1 CLA      0.088500
     34 C2C        73.1714   59.0344   43.6408 cb         1 CLA      0.053700
     35 C2D        73.0965   55.7033   38.5024 cb         1 CLA      0.058900
     36 O2A        81.1059   56.2459   35.5483 o1         1 CLA     -0.437200
     37 O2D        76.6964   53.6784   36.9231 o1         1 CLA     -0.357600
     38 C3         83.0971   53.8652   37.1516 c5         1 CLA      0.031200
     39 C3A        79.5173   58.6661   37.8344 a1         1 CLA      0.166800
     40 C3B        77.6058   61.3070   43.2032 cb         1 CLA      0.035000
     41 C3C        72.3365   58.1070   42.9552 cb         1 CLA     -0.089900
     42 C3D        74.1436   55.7974   37.5975 cb         1 CLA     -0.035900
     43 C4         82.5912   52.5511   37.7299 a3         1 CLA     -0.053300
     44 C4A        78.5260   59.0296   38.9620 ac         1 CLA      0.001800
     45 C4B        76.5072   60.5698   42.6104 cn         1 CLA     -0.020900
     46 C4C        72.9708   58.0240   41.6243 cr         1 CLA     -0.044400
     47 C4D        75.0493   56.8173   38.1047 c6         1 CLA     -0.046000
     48 C5         84.6157   53.9778   36.9669 a2         1 CLA     -0.070400
     49 C6         85.2367   55.4206   37.1227 a2         1 CLA      0.043900
     50 C7         84.9857   55.9222   38.6035 a2         1 CLA     -0.150000
     51 C8         85.4735   57.3756   38.8555 a1         1 CLA      0.064200
     52 C9         86.9267   57.5149   38.5356 a3         1 CLA     -0.259300
     53 C10        85.2411   57.7869   40.3009 a2         1 CLA     -0.071900
     54 C11        83.8159   58.2571   40.7623 a2         1 CLA      0.014500
     55 C12        83.8437   59.0510   42.0844 a2         1 CLA     -0.112100
     56 C13        84.3721   58.4288   43.3535 a1         1 CLA      0.089200
     57 C14        83.6587   57.0925   43.6464 a3         1 CLA     -0.239100
     58 C15        84.5279   59.3987   44.6408 a2         1 CLA     -0.102200
     59 C16        83.3599   60.1860   45.1637 a2         1 CLA      0.023900
     60 C17        83.7330   60.8055   46.5202 a2         1 CLA     -0.105700
     61 C18        82.7293   61.9264   47.0067 a1         1 CLA      0.206800
     62 C19        81.4943   61.5518   47.8270 a3         1 CLA     -0.280100
     63 C20        83.5317   63.0069   47.8607 a3         1 CLA     -0.280100
     64 NC         74.1100   58.8185   41.6037 nx         1 CLA     -0.309200
     65 MG         75.6666   58.7754   40.0991 mg         1 CLA      0.895000
     66 HMD3       71.6781   54.0957   37.7493 dc         1 CLA      0.064300
     67 HMD2       71.9333   54.3785   39.5459 dc         1 CLA      0.064300
     68 HMD1       70.9612   55.4915   38.6950 dc         1 CLA      0.064300
     69 HMC3       73.7394   58.8867   45.7206 dc         1 CLA      0.052100
     70 HMC2       73.1174   60.5326   45.0963 dc         1 CLA      0.052100
     71 HMC1       72.0338   59.2995   45.6104 dc         1 CLA      0.052100
     72 HMB3       80.7957   61.2928   42.7486 dc         1 CLA      0.063600
     73 HMB2       80.1656   62.0826   41.2127 dc         1 CLA      0.063600
     74 HMB1       79.8383   62.7227   42.8996 dc         1 CLA      0.063600
     75 HMA3       81.0807   58.6381   39.2427 dc         1 CLA      0.058300
     76 HMA2       80.5432   57.0791   38.6583 dc         1 CLA      0.058300
     77 HMA1       81.5251   58.2426   37.5473 dc         1 CLA      0.058300
     78 HED3       78.6113   52.8925   37.2683 dc         1 CLA      0.079300
     79 HED2       77.1972   51.6908   37.3878 dc         1 CLA      0.079300
     80 HED1       77.7618   52.2846   35.8401 dc         1 CLA      0.079300
     81 HBC3       71.7783   55.7118   44.5751 dc         1 CLA      0.016300
     82 HBC2       70.1395   55.4070   43.8750 dc         1 CLA      0.016300
     83 HBC1       71.4960   55.2981   42.9107 dc         1 CLA      0.016300
     84 HBB2       78.7588   62.1072   46.3515 da         1 CLA      0.183000
     85 HBB1       79.6532   61.2344   44.9604 da         1 CLA      0.183000
     86 HBA2       79.8739   58.5565   33.5996 dc         1 CLA      0.029400
     87 HBA1       80.6624   58.6032   35.1637 dc         1 CLA      0.029400
     88 HAC2       70.5797   57.9965   44.2054 dc         1 CLA      0.029300
     89 HAC1       70.3997   57.4433   42.5518 dc         1 CLA      0.029300
     90 HAA2       77.8307   57.5795   34.8694 dc         1 CLA      0.028700
     91 HAA1       78.2840   59.2124   35.4066 dc         1 CLA      0.028700
     92 H203       82.9861   63.5988   48.5084 dc         1 CLA      0.065600
     93 H202       84.2294   62.5235   48.4850 dc         1 CLA      0.065600
     94 H201       84.1130   63.6707   47.2657 dc         1 CLA      0.065600
     95 H193       80.7602   62.3599   47.5933 dc         1 CLA      0.065600
     96 H192       81.0961   60.5824   47.5457 dc         1 CLA      0.065600
     97 H191       81.5956   61.4912   48.8852 dc         1 CLA      0.065600
     98 H172       83.7211   60.2141   47.4492 dc         1 CLA      0.027600
     99 H171       84.7142   61.2796   46.4439 dc         1 CLA      0.027600
    100 H162       83.1019   60.9916   44.4355 dc         1 CLA      0.002900
    101 H161       82.4395   59.5178   45.2966 dc         1 CLA      0.002900
    102 H152       85.0690   58.8870   45.4401 dc         1 CLA      0.029100
    103 H151       85.3081   60.1248   44.1986 dc         1 CLA      0.029100
    104 H143       83.6643   56.3516   42.8799 dc         1 CLA      0.063600
    105 H142       84.1609   56.5624   44.4712 dc         1 CLA      0.063600
    106 H141       82.6273   57.3539   43.8583 dc         1 CLA      0.063600
    107 H122       84.4127   60.0295   41.9117 dc         1 CLA      0.032500
    108 H121       82.8056   59.3302   42.2675 dc         1 CLA      0.032500
    109 H112       83.4656   58.9167   39.9010 dc         1 CLA      0.006600
    110 H111       83.0614   57.4879   40.6605 dc         1 CLA      0.006600
    111 H102       85.5129   56.9901   41.0430 dc         1 CLA      0.024100
    112 H101       85.9428   58.5008   40.6215 dc         1 CLA      0.024100
    113 HHD        71.7319   56.3754   40.7929 da         1 CLA      0.174300
    114 HHC        75.3493   60.6114   44.2606 da         1 CLA      0.136800
    115 HHB        79.9111   60.3899   40.0117 da         1 CLA      0.138300
    116 HBD        76.0844   56.4366   35.3465 dc         1 CLA      0.107700
    117 HAB        76.7304   62.1607   45.0127 da         1 CLA      0.155200
    118 H93        87.0103   57.3674   37.4695 dc         1 CLA      0.069500
    119 H92        87.2250   58.4902   38.8624 dc         1 CLA      0.069500
    120 H91        87.5098   56.7141   39.0936 dc         1 CLA      0.069500
    121 H8         84.8702   58.1182   38.2621 dc         1 CLA      0.029300
    122 H72        83.9378   55.8602   38.8047 dc         1 CLA      0.044400
    123 H71        85.4738   55.3448   39.4173 dc         1 CLA      0.044400
    124 H62        86.2732   55.3149   36.8977 dc         1 CLA      0.015600
    125 H61        84.7609   56.1050   36.4156 dc         1 CLA      0.015600
    126 H52        85.1700   53.3289   37.6976 dc         1 CLA      0.033200
    127 H51        84.7124   53.6867   35.9356 dc         1 CLA      0.033200
    128 H43        81.7415   52.6932   38.2678 dc         1 CLA      0.037000
    129 H42        82.4568   51.8547   36.8979 dc         1 CLA      0.037000
    130 H41        83.3116   52.0903   38.3687 dc         1 CLA      0.037000
    131 H3A        79.7439   59.4780   37.1816 dc         1 CLA      0.041100
    132 H2A        79.0646   56.7287   37.0196 dc         1 CLA      0.083100
    133 H2         82.0390   55.6985   37.5010 da         1 CLA      0.180900
    134 H18        82.3183   62.4485   46.1694 dc         1 CLA     -0.003900
    135 H13        85.4467   58.1636   43.1539 dc         1 CLA      0.019700
    136 H12        80.8953   54.0395   35.3510 dc         1 CLA      0.120400
    137 H11        82.4366   54.7488   34.7486 dc         1 CLA      0.120400
    138 C1         68.2191   61.9460   49.9480 Z1         2 LUT      0.509236
    139 C2         66.9537   61.5400   50.7129 Z2         2 LUT     -0.434695
    140 C3         65.9775   62.6926   51.0508 Z3         2 LUT      0.437453
    141 O3         66.4440   63.2826   52.2522 S1         2 LUT     -0.547129
    142 C4         65.9306   63.7919   50.0048 Z4         2 LUT     -0.468603
    143 C5         66.6404   63.5537   48.7164 Z5         2 LUT      0.279246
    144 C6         67.7341   62.6622   48.6817 Z6         2 LUT     -0.305473
    145 C7         68.1659   62.1187   47.3478 Z7         2 LUT      0.069402
    146 C8         69.3689   62.3329   46.8355 Z8         2 LUT     -0.191631
    147 C9         69.8512   61.9810   45.5664 Z9         2 LUT      0.196698
    148 C10        71.0104   62.5744   45.1726 Y1         2 LUT     -0.208611
    149 C11        71.6782   62.5587   43.9115 Y2         2 LUT      0.030784
    150 C12        72.8806   63.1634   43.7188 Y3         2 LUT     -0.220316
    151 C13        73.6647   63.1478   42.5578 Y4         2 LUT      0.215937
    152 C14        74.9309   63.7579   42.5830 Y5         2 LUT     -0.185793
    153 C15        75.9089   63.8807   41.5240 Y6         2 LUT     -0.057835
    154 C16        69.0102   60.5751   49.7164 Y7         2 LUT     -0.405615
    155 C17        69.0363   62.9388   50.9173 Y7         2 LUT     -0.405615
    156 C18        65.9886   64.2104   47.4994 Y9         2 LUT     -0.369639
    157 C19        69.1736   60.9267   44.7816 W1         2 LUT     -0.333362
    158 C20        73.1311   62.6716   41.2109 W2         2 LUT     -0.323439
    159 C21        87.2034   65.4225   35.5141 Z1         2 LUT      0.406104
    160 C22        88.0962   65.0385   34.3727 Z2         2 LUT     -0.404965
    161 C23        88.2120   66.0530   33.2563 Z3         2 LUT      0.391255
    162 O23        88.9632   65.3781   32.1756 S1         2 LUT     -0.528210
    163 C24        86.8852   66.7654   32.8490 W6         2 LUT     -0.258361
    164 C25        85.7829   66.6936   33.5562 Z5         2 LUT      0.133546
    165 C26        85.7405   65.8632   34.8252 W8         2 LUT     -0.147008
    166 C27        84.8284   66.4842   35.9041 Z7         2 LUT      0.023843
    167 C28        83.8068   65.9364   36.5972 Z8         2 LUT     -0.216987
    168 C29        83.0973   66.4380   37.7564 Z9         2 LUT      0.206524
    169 C30        81.9610   65.7693   38.1741 Y1         2 LUT     -0.215556
    170 C31        81.2087   65.9408   39.3222 Y2         2 LUT      0.025142
    171 C32        80.0323   65.2989   39.5260 Y3         2 LUT     -0.212209
    172 C33        79.1473   65.4332   40.7227 Y4         2 LUT      0.240937
    173 C34        77.9186   64.7657   40.6584 Y5         2 LUT     -0.218862
    174 C35        76.9811   64.5611   41.6891 Y6         2 LUT     -0.023547
    175 C36        87.9454   66.4226   36.4328 Y7         2 LUT     -0.393485
    176 C37        86.8625   64.2319   36.4505 Y7         2 LUT     -0.393485
    177 C38        84.5013   67.3627   33.0555 Y9         2 LUT     -0.387526
    178 C39        83.7440   67.4276   38.6199 W1         2 LUT     -0.322618
    179 C40        79.6078   66.3163   41.8394 W2         2 LUT     -0.358472
    180 H403       78.8060   66.6287   42.5532 R7         2 LUT      0.097720
    181 H402       80.2298   65.8902   42.5560 R7         2 LUT      0.097720
    182 H401       80.1272   67.2322   41.5598 R7         2 LUT      0.097720
    183 H393       83.0568   68.0664   39.1944 R4         2 LUT      0.082505
    184 H392       84.5458   67.0490   39.1997 R4         2 LUT      0.082505
    185 H391       84.2572   68.1369   38.0324 R4         2 LUT      0.082505
    186 H383       84.6456   67.9938   32.1899 R1         2 LUT      0.104030
    187 H382       83.7591   66.6229   32.9325 R1         2 LUT      0.104030
    188 H381       84.1225   67.8879   33.8627 R1         2 LUT      0.104030
    189 H373       86.1058   64.5898   37.2016 T4         2 LUT      0.089537
    190 H372       86.4435   63.2947   35.9230 T4         2 LUT      0.089537
    191 H371       87.7625   63.8408   36.9030 T4         2 LUT      0.089537
    192 H363       88.8105   65.9358   36.8112 T4         2 LUT      0.089537
    193 H362       88.4610   67.2723   35.8643 T4         2 LUT      0.089537
    194 H361       87.2874   66.6437   37.3000 T4         2 LUT      0.089537
    195 H222       89.0270   64.6562   34.8247 U2         2 LUT      0.127376
    196 H221       87.5675   64.1359   33.9342 U2         2 LUT      0.127376
    197 H203       72.9537   63.4748   40.4879 R7         2 LUT      0.087068
    198 H202       73.9553   62.1338   40.7979 R7         2 LUT      0.087068
    199 H201       72.3614   61.9887   41.3382 R7         2 LUT      0.087068
    200 H193       68.3214   60.5089   45.2262 R4         2 LUT      0.089716
    201 H192       68.9435   61.3702   43.8434 R4         2 LUT      0.089716
    202 H191       69.9460   60.2837   44.4477 R4         2 LUT      0.089716
    203 H183       66.2700   65.2302   47.3959 R1         2 LUT      0.094572
    204 H182       66.1047   63.6599   46.5335 R1         2 LUT      0.094572
    205 H181       64.9108   64.2492   47.6457 R1         2 LUT      0.094572
    206 H173       70.0607   63.2156   50.4906 T4         2 LUT      0.093752
    207 H172       68.4975   63.7909   50.9462 T4         2 LUT      0.093752
    208 H171       69.1772   62.4046   51.9310 T4         2 LUT      0.093752
    209 H163       68.3562   59.8120   49.2163 T4         2 LUT      0.093752
    210 H162       69.8943   60.5182   49.0267 T4         2 LUT      0.093752
    211 H161       69.3893   60.2124   50.6388 T4         2 LUT      0.093752
    212 HO3        66.1152   62.9200   53.0633 Q1         2 LUT      0.300121
    213 H8         70.1796   62.7694   47.4337 U7         2 LUT      0.080784
    214 H7         67.3663   61.6223   46.7922 U6         2 LUT      0.042190
    215 H42        64.8988   63.8195   49.7893 U5         2 LUT      0.145166
    216 H41        66.2255   64.8397   50.3978 U5         2 LUT      0.145166
    217 H35        77.1119   65.0663   42.6448 T3         2 LUT      0.077919
    218 H34        77.8035   64.1813   39.7462 T2         2 LUT      0.073626
    219 H32        79.6823   64.7294   38.5941 T1         2 LUT      0.092510
    220 H31        81.6883   66.5204   40.0678 U9         2 LUT      0.070048
    221 H30        81.6227   64.9849   37.4834 U8         2 LUT      0.085442
    222 H3         64.9105   62.4319   51.2021 U3         2 LUT     -0.031596
    223 H28        83.5258   64.8861   36.3638 U7         2 LUT      0.084728
    224 H27        85.2159   67.5332   36.0332 U6         2 LUT      0.087291
    225 H26        85.1555   64.9659   34.4869 Q6         2 LUT      0.075325
    226 H24        86.9096   67.2826   31.9636 Q5         2 LUT      0.094482
    227 H23        88.9061   66.8380   33.5808 U3         2 LUT     -0.024869
    228 H22        66.4341   60.7378   50.2663 U2         2 LUT      0.127376
    229 H21        67.3874   61.1374   51.6583 U2         2 LUT      0.127376
    230 H15        75.8007   63.3863   40.5496 T3         2 LUT      0.093200
    231 H14        75.3128   64.0483   43.5250 T2         2 LUT      0.068865
    232 H12        73.3544   63.6436   44.5926 T1         2 LUT      0.095507
    233 H11        71.1397   62.0239   43.0787 U9         2 LUT      0.068930
    234 H10        71.4611   63.2922   45.8617 U8         2 LUT      0.083911
    235 H1         88.3661   65.0216   31.5018 Q1         2 LUT      0.297311
@<TRIPOS>BOND
    1     6     1 1
    2     7     2 1
    3     8     3 1
    4     9     4 1
    5    11     4 1
    6    12     6 1
    7    13     9 1
    8    16     9 1
    9    25     5 1
   10    25    16 1
   11    26    10 1
   12    26    17 1
   13    27    18 1
   14    28    14 1
   15    28    19 1
   16    29    12 1
   17    30    13 1
   18    31    24 1
   19    32     1 1
   20    32    25 1
   21    33    21 1
   22    33    26 1
   23    34    22 1
   24    34    27 1
   25    35    23 1
   26    35    28 1
   27    36    12 1
   28    36    24 1
   29    37    13 1
   30    37    15 1
   31    38    31 1
   32    39    20 1
   33    39    32 1
   34    40     2 1
   35    40    33 1
   36    41     3 1
   37    41    34 1
   38    42     4 1
   39    42    35 1
   40    43    38 1
   41    44     5 1
   42    44    17 1
   43    44    39 1
   44    45    10 1
   45    45    18 1
   46    45    40 1
   47    46    19 1
   48    46    41 1
   49    47    14 1
   50    47    16 1
   51    47    42 1
   52    48    38 1
   53    49    48 1
   54    50    49 1
   55    51    50 1
   56    52    51 1
   57    53    51 1
   58    54    53 1
   59    55    54 1
   60    56    55 1
   61    57    56 1
   62    58    56 1
   63    59    58 1
   64    60    59 1
   65    61    60 1
   66    62    61 1
   67    63    61 1
   68    64    27 1
   69    64    46 1
   70    65     5 1
   71    65    10 1
   72    65    64 1
   73    65    14 1
   74    66    23 1
   75    67    23 1
   76    68    23 1
   77    69    22 1
   78    70    22 1
   79    71    22 1
   80    72    21 1
   81    73    21 1
   82    74    21 1
   83    75    20 1
   84    76    20 1
   85    77    20 1
   86    78    15 1
   87    79    15 1
   88    80    15 1
   89    81     8 1
   90    82     8 1
   91    83     8 1
   92    84     7 1
   93    85     7 1
   94    86     6 1
   95    87     6 1
   96    88     3 1
   97    89     3 1
   98    90     1 1
   99    91     1 1
  100    92    63 1
  101    93    63 1
  102    94    63 1
  103    95    62 1
  104    96    62 1
  105    97    62 1
  106    98    60 1
  107    99    60 1
  108   100    59 1
  109   101    59 1
  110   102    58 1
  111   103    58 1
  112   104    57 1
  113   105    57 1
  114   106    57 1
  115   107    55 1
  116   108    55 1
  117   109    54 1
  118   110    54 1
  119   111    53 1
  120   112    53 1
  121   113    19 1
  122   114    18 1
  123   115    17 1
  124   116     9 1
  125   117     2 1
  126   118    52 1
  127   119    52 1
  128   120    52 1
  129   121    51 1
  130   122    50 1
  131   123    50 1
  132   124    49 1
  133   125    49 1
  134   126    48 1
  135   127    48 1
  136   128    43 1
  137   129    43 1
  138   130    43 1
  139   131    39 1
  140   132    32 1
  141   133    31 1
  142   134    61 1
  143   135    56 1
  144   136    24 1
  145   137    24 1
  146   139   138 1
  147   140   139 1
  148   141   140 1
  149   142   140 1
  150   143   142 1
  151   144   138 1
  152   144   143 1
  153   145   144 1
  154   146   145 1
  155   147   146 1
  156   148   147 1
  157   149   148 1
  158   150   149 1
  159   151   150 1
  160   152   151 1
  161   153   152 1
  162   154   138 1
  163   155   138 1
  164   156   143 1
  165   157   147 1
  166   158   151 1
  167   160   159 1
  168   161   160 1
  169   162   161 1
  170   163   161 1
  171   164   163 1
  172   165   159 1
  173   165   164 1
  174   166   165 1
  175   167   166 1
  176   168   167 1
  177   169   168 1
  178   170   169 1
  179   171   170 1
  180   172   171 1
  181   173   172 1
  182   174   153 1
  183   174   173 1
  184   175   159 1
  185   176   159 1
  186   177   164 1
  187   178   168 1
  188   179   172 1
  189   180   179 1
  190   181   179 1
  191   182   179 1
  192   183   178 1
  193   184   178 1
  194   185   178 1
  195   186   177 1
  196   187   177 1
  197   188   177 1
  198   189   176 1
  199   190   176 1
  200   191   176 1
  201   192   175 1
  202   193   175 1
  203   194   175 1
  204   195   160 1
  205   196   160 1
  206   197   158 1
  207   198   158 1
  208   199   158 1
  209   200   157 1
  210   201   157 1
  211   202   157 1
  212   203   156 1
  213   204   156 1
  214   205   156 1
  215   206   155 1
  216   207   155 1
  217   208   155 1
  218   209   154 1
  219   210   154 1
  220   211   154 1
  221   212   141 1
  222   213   146 1
  223   214   145 1
  224   215   142 1
  225   216   142 1
  226   217   174 1
  227   218   173 1
  228   219   171 1
  229   220   170 1
  230   221   169 1
  231   222   140 1
  232   223   167 1
  233   224   166 1
  234   225   165 1
  235   226   163 1
  236   227   161 1
  237   228   139 1
  238   229   139 1
  239   230   153 1
  240   231   152 1
  241   232   150 1
  242   233   149 1
  243   234   148 1
  244   235   162 1
  245   65    153 1
  246   65    174 1
@<TRIPOS>SUBSTRUCTURE
      1 CLA               1 ****               0 ****  **** 
      2 LUT             138 ****               0 ****  **** 
