@<TRIPOS>MOLECULE
Cpptraj generated mol2 file.
  235   246     2     0     0
SMALL
USER_CHARGES


@<TRIPOS>ATOM
      1 CAA        77.7531   58.4024   33.9038 a2         1 CLA     -0.055900
      2 CAB        77.9968   61.9666   43.0911 c8         1 CLA     -0.148500
      3 CAC        71.0914   57.6100   42.7906 a2         1 CLA     -0.012600
      4 CAD        73.3548   56.0060   34.9515 ck         1 CLA      0.398800
      5 NA         76.6760   58.6434   37.3331 ns         1 CLA     -0.225500
      6 CBA        78.8812   58.1043   32.9596 a2         1 CLA     -0.135000
      7 CBB        79.2719   62.0202   43.5339 c0         1 CLA     -0.395200
      8 CBC        70.9750   56.0978   42.6422 a3         1 CLA     -0.037700
      9 CBD        74.7915   56.5491   34.5970 a1         1 CLA     -0.053900
     10 NB         76.6332   60.1184   40.0237 nm         1 CLA     -0.295700
     11 OBD        72.6750   55.4368   34.1139 o2         1 CLA     -0.494600
     12 CGA        79.2221   56.6777   32.5726 c4         1 CLA      0.827000
     13 CGD        75.7117   55.3712   34.2503 c4         1 CLA      0.655300
     14 ND         74.0006   57.6277   38.0575 nm         1 CLA     -0.291600
     15 CED        76.5812   53.2508   35.0453 a3         1 CLA      0.005400
     16 CHA        75.2870   57.2645   35.8411 cs         1 CLA     -0.123800
     17 CHB        78.5366   59.8577   38.3822 aa         1 CLA     -0.291900
     18 CHC        75.4398   60.2247   42.2083 aa         1 CLA     -0.090400
     19 CHD        72.2522   57.3923   39.7467 aa         1 CLA     -0.052000
     20 CMA        80.0307   57.7631   36.7505 a3         1 CLA     -0.230700
     21 CMB        79.9761   61.8231   40.3854 a3         1 CLA     -0.180800
     22 CMC        73.0360   59.5939   44.2716 a3         1 CLA     -0.134000
     23 CMD        70.7116   55.8184   37.1839 a3         1 CLA     -0.141100
     24 C1         80.3747   54.7648   33.4514 a2         1 CLA      0.023000
     25 C1A        76.5618   57.8957   36.1831 ac         1 CLA     -0.015100
     26 C1B        77.9088   60.4789   39.5576 cr         1 CLA      0.054700
     27 C1C        74.2143   59.5035   41.8876 cn         1 CLA     -0.005600
     28 C1D        72.7514   57.1136   38.4357 ap         1 CLA     -0.047300
     29 O1A        78.7258   56.0175   31.6227 o2         1 CLA     -0.610800
     30 O1D        76.4203   55.3373   33.2782 o2         1 CLA     -0.558200
     31 C2         81.1992   54.4935   34.7036 c8         1 CLA     -0.325100
     32 C2A        77.8487   57.7765   35.3678 a1         1 CLA      0.098600
     33 C2B        78.5831   61.3181   40.5612 cb         1 CLA      0.088500
     34 C2C        73.1841   59.1295   42.7897 cb         1 CLA      0.053700
     35 C2D        72.1194   56.3962   37.3384 cb         1 CLA      0.058900
     36 O2A        80.1066   56.2111   33.4752 o1         1 CLA     -0.437200
     37 O2D        75.6708   54.4100   35.2264 o1         1 CLA     -0.357600
     38 C3         81.6372   53.2535   34.9095 c5         1 CLA      0.031200
     39 C3A        78.8465   58.6185   36.2365 a1         1 CLA      0.166800
     40 C3B        77.7156   61.3213   41.7625 cb         1 CLA      0.035000
     41 C3C        72.3800   58.1946   42.1512 cb         1 CLA     -0.089900
     42 C3D        73.0795   56.3751   36.2910 cb         1 CLA     -0.035900
     43 C4         80.7049   52.2454   35.5425 a3         1 CLA     -0.053300
     44 C4A        77.9126   59.1277   37.3738 ac         1 CLA      0.001800
     45 C4B        76.4997   60.5350   41.3724 cn         1 CLA     -0.020900
     46 C4C        72.8941   58.1378   40.7672 cr         1 CLA     -0.044400
     47 C4D        74.2139   57.1261   36.7720 c6         1 CLA     -0.046000
     48 C5         83.0601   52.9287   34.7186 a2         1 CLA     -0.070400
     49 C6         84.1495   54.0039   34.9467 a2         1 CLA      0.043900
     50 C7         84.1771   54.2687   36.4904 a2         1 CLA     -0.150000
     51 C8         84.8201   55.6165   36.8587 a1         1 CLA      0.064200
     52 C9         86.2472   55.7415   36.3645 a3         1 CLA     -0.259300
     53 C10        84.6858   55.9044   38.4031 a2         1 CLA     -0.071900
     54 C11        83.2926   55.6616   38.9890 a2         1 CLA      0.014500
     55 C12        83.3357   56.4869   40.2873 a2         1 CLA     -0.112100
     56 C13        82.0498   56.7417   41.0724 a1         1 CLA      0.089200
     57 C14        81.0889   57.6713   40.3186 a3         1 CLA     -0.239100
     58 C15        82.1862   57.2749   42.5244 a2         1 CLA     -0.102200
     59 C16        82.7772   58.6375   42.8526 a2         1 CLA      0.023900
     60 C17        83.0156   58.6406   44.3961 a2         1 CLA     -0.105700
     61 C18        83.5259   59.9641   45.1027 a1         1 CLA      0.206800
     62 C19        84.8452   60.5364   44.5316 a3         1 CLA     -0.280100
     63 C20        82.3936   61.0421   45.0742 a3         1 CLA     -0.280100
     64 NC         74.0087   58.9389   40.6722 nx         1 CLA     -0.309200
     65 MG         75.2423   59.0508   39.0113 mg         1 CLA      0.895000
     66 HMD3       69.9976   56.5281   36.8514 dc         1 CLA      0.064300
     67 HMD2       70.7684   54.8086   36.7792 dc         1 CLA      0.064300
     68 HMD1       70.4454   55.7004   38.2369 dc         1 CLA      0.064300
     69 HMC3       71.9659   59.9010   44.5886 dc         1 CLA      0.052100
     70 HMC2       73.5170   58.8152   44.8318 dc         1 CLA      0.052100
     71 HMC1       73.6800   60.4742   44.5160 dc         1 CLA      0.052100
     72 HMB3       80.5868   61.0986   40.9272 dc         1 CLA      0.063600
     73 HMB2       80.1507   61.9105   39.2814 dc         1 CLA      0.063600
     74 HMB1       80.1001   62.7584   40.8860 dc         1 CLA      0.063600
     75 HMA3       80.6988   58.3541   37.3665 dc         1 CLA      0.058300
     76 HMA2       79.6760   57.0021   37.4201 dc         1 CLA      0.058300
     77 HMA1       80.4376   57.3489   35.8219 dc         1 CLA      0.058300
     78 HED3       77.4678   53.3372   34.4285 dc         1 CLA      0.079300
     79 HED2       76.7368   52.7888   36.0414 dc         1 CLA      0.079300
     80 HED1       76.1128   52.4027   34.6139 dc         1 CLA      0.079300
     81 HBC3       70.3640   55.7627   43.4444 dc         1 CLA      0.016300
     82 HBC2       70.5684   55.7702   41.6980 dc         1 CLA      0.016300
     83 HBC1       71.9867   55.6477   42.7981 dc         1 CLA      0.016300
     84 HBB2       79.4905   62.4585   44.5361 da         1 CLA      0.183000
     85 HBB1       79.9711   61.5586   42.9097 da         1 CLA      0.183000
     86 HBA2       78.5363   58.6695   32.1244 dc         1 CLA      0.029400
     87 HBA1       79.7400   58.5768   33.4649 dc         1 CLA      0.029400
     88 HAC2       71.0941   57.8256   43.8805 dc         1 CLA      0.029300
     89 HAC1       70.1838   58.1015   42.3367 dc         1 CLA      0.029300
     90 HAA2       76.8447   57.9853   33.4712 dc         1 CLA      0.028700
     91 HAA1       77.4887   59.5266   33.9764 dc         1 CLA      0.028700
     92 H203       82.5490   61.7840   45.8886 dc         1 CLA      0.065600
     93 H202       82.3023   61.5586   44.1002 dc         1 CLA      0.065600
     94 H201       81.3949   60.6296   45.2607 dc         1 CLA      0.065600
     95 H193       84.9352   61.3954   45.1388 dc         1 CLA      0.065600
     96 H192       85.7090   59.8473   44.7310 dc         1 CLA      0.065600
     97 H191       84.7830   60.7923   43.4214 dc         1 CLA      0.065600
     98 H172       82.0993   58.4129   44.8211 dc         1 CLA      0.027600
     99 H171       83.8055   57.8974   44.4776 dc         1 CLA      0.027600
    100 H162       83.6842   58.8847   42.3459 dc         1 CLA      0.002900
    101 H161       81.9489   59.3384   42.6168 dc         1 CLA      0.002900
    102 H152       81.1938   57.2486   43.0111 dc         1 CLA      0.029100
    103 H151       82.7782   56.4543   42.9859 dc         1 CLA      0.029100
    104 H143       81.3566   58.7293   40.4844 dc         1 CLA      0.063600
    105 H142       80.9025   57.5076   39.2812 dc         1 CLA      0.063600
    106 H141       80.1102   57.6136   40.8049 dc         1 CLA      0.063600
    107 H122       84.1146   56.0554   40.9791 dc         1 CLA      0.032500
    108 H121       83.6553   57.5139   40.0819 dc         1 CLA      0.032500
    109 H112       82.4944   55.9035   38.2825 dc         1 CLA      0.006600
    110 H111       83.1465   54.6290   39.2944 dc         1 CLA      0.006600
    111 H102       85.4355   55.4408   39.0349 dc         1 CLA      0.024100
    112 H101       84.9265   56.9642   38.4365 dc         1 CLA      0.024100
    113 HHD        71.2677   56.9729   40.0594 da         1 CLA      0.174300
    114 HHC        75.5515   60.6210   43.2215 da         1 CLA      0.136800
    115 HHB        79.4933   60.2291   38.1034 da         1 CLA      0.138300
    116 HBD        74.6750   57.1815   33.7332 dc         1 CLA      0.107700
    117 HAB        77.2439   62.1477   43.9273 da         1 CLA      0.155200
    118 H93        86.6178   56.6798   36.7196 dc         1 CLA      0.069500
    119 H92        86.8210   54.9427   36.7601 dc         1 CLA      0.069500
    120 H91        86.3823   55.9172   35.2672 dc         1 CLA      0.069500
    121 H8         84.2928   56.3461   36.3027 dc         1 CLA      0.029300
    122 H72        83.2484   54.1395   37.0534 dc         1 CLA      0.044400
    123 H71        84.8707   53.5443   36.8303 dc         1 CLA      0.044400
    124 H62        85.1947   53.7225   34.6595 dc         1 CLA      0.015600
    125 H61        83.8707   54.8764   34.3548 dc         1 CLA      0.015600
    126 H52        83.3032   52.0534   35.2927 dc         1 CLA      0.033200
    127 H51        83.1717   52.7063   33.6990 dc         1 CLA      0.033200
    128 H43        79.6596   52.4320   35.3892 dc         1 CLA      0.037000
    129 H42        80.7788   51.2322   35.0730 dc         1 CLA      0.037000
    130 H41        81.0460   52.2710   36.6118 dc         1 CLA      0.037000
    131 H3A        79.1852   59.5132   35.7213 dc         1 CLA      0.041100
    132 H2A        78.1280   56.7158   35.2000 dc         1 CLA      0.083100
    133 H2         81.4354   55.3532   35.3872 da         1 CLA      0.180900
    134 H18        83.6737   59.7200   46.1458 dc         1 CLA     -0.003900
    135 H13        81.6491   55.7671   41.1657 dc         1 CLA      0.019700
    136 H12        79.4619   54.2295   33.5453 dc         1 CLA      0.120400
    137 H11        80.8224   54.3590   32.5669 dc         1 CLA      0.120400
    138 C1         67.7000   61.3632   49.9356 Z1         2 LUT      0.509236
    139 C2         67.8150   62.7262   50.6890 Z2         2 LUT     -0.434695
    140 C3         66.5218   63.4366   50.8821 Z3         2 LUT      0.437453
    141 O3         66.6307   64.8303   51.2456 S1         2 LUT     -0.547129
    142 C4         65.5306   63.2817   49.7861 Z4         2 LUT     -0.468603
    143 C5         66.1104   62.6747   48.5159 Z5         2 LUT      0.279246
    144 C6         67.0750   61.7533   48.5517 Z6         2 LUT     -0.305473
    145 C7         67.6601   61.2587   47.3246 Z7         2 LUT      0.069402
    146 C8         68.3218   61.9550   46.3718 Z8         2 LUT     -0.191631
    147 C9         68.8854   61.6183   45.1238 Z9         2 LUT      0.196698
    148 C10        70.0328   62.2910   44.6849 Y1         2 LUT     -0.208611
    149 C11        70.7408   62.1742   43.4481 Y2         2 LUT      0.030784
    150 C12        71.8794   62.8416   43.1760 Y3         2 LUT     -0.220316
    151 C13        72.7308   62.7106   42.0013 Y4         2 LUT      0.215937
    152 C14        73.9973   63.3048   42.0080 Y5         2 LUT     -0.185793
    153 C15        74.9436   63.4691   40.9822 Y6         2 LUT     -0.057835
    154 C16        66.7002   60.4542   50.7365 Y7         2 LUT     -0.405615
    155 C17        69.0925   60.7672   49.9839 Y7         2 LUT     -0.405615
    156 C18        65.6008   63.4149   47.2800 Y9         2 LUT     -0.369639
    157 C19        68.3292   60.4056   44.3885 W1         2 LUT     -0.333362
    158 C20        72.1870   62.0812   40.7477 W2         2 LUT     -0.323439
    159 C21        86.1297   65.1600   34.6981 Z1         2 LUT      0.406104
    160 C22        86.5618   64.3758   33.4720 Z2         2 LUT     -0.404965
    161 C23        86.6814   65.1979   32.2498 Z3         2 LUT      0.391255
    162 O23        87.1467   64.4506   31.1922 S1         2 LUT     -0.528210
    163 C24        85.4407   66.0999   32.0442 W6         2 LUT     -0.258361
    164 C25        84.4792   66.2329   32.9834 Z5         2 LUT      0.133546
    165 C26        84.5808   65.5287   34.3267 W8         2 LUT     -0.147008
    166 C27        83.9074   66.2333   35.4588 Z7         2 LUT      0.023843
    167 C28        83.0171   65.6469   36.2555 Z8         2 LUT     -0.216987
    168 C29        82.4680   66.1471   37.4868 Z9         2 LUT      0.206524
    169 C30        81.2678   65.5684   37.7830 Y1         2 LUT     -0.215556
    170 C31        80.3882   65.7408   38.8883 Y2         2 LUT      0.025142
    171 C32        79.2125   65.0973   39.0968 Y3         2 LUT     -0.212209
    172 C33        78.3742   64.9685   40.2547 Y4         2 LUT      0.240937
    173 C34        77.1946   64.2741   40.1134 Y5         2 LUT     -0.218862
    174 C35        76.1559   63.9249   41.0984 Y6         2 LUT     -0.023547
    175 C36        87.0537   66.3179   35.2536 Y7         2 LUT     -0.393485
    176 C37        86.1409   64.2832   35.9959 Y7         2 LUT     -0.393485
    177 C38        83.2455   67.0264   32.6505 Y9         2 LUT     -0.387526
    178 C39        83.1596   67.2223   38.3537 W1         2 LUT     -0.322618
    179 C40        78.7105   65.9509   41.3633 W2         2 LUT     -0.358472
    180 H403       78.1065   65.8268   42.2084 R7         2 LUT      0.097720
    181 H402       79.7364   65.9103   41.5789 R7         2 LUT      0.097720
    182 H401       78.4437   66.9437   40.9937 R7         2 LUT      0.097720
    183 H393       84.1071   67.5611   38.0781 R4         2 LUT      0.082505
    184 H392       82.4473   68.0375   38.6847 R4         2 LUT      0.082505
    185 H391       83.3895   66.7203   39.3178 R4         2 LUT      0.082505
    186 H383       82.7582   66.7079   31.6974 R1         2 LUT      0.104030
    187 H382       82.5390   67.0361   33.5015 R1         2 LUT      0.104030
    188 H381       83.4882   68.0882   32.3762 R1         2 LUT      0.104030
    189 H373       87.2088   64.0010   36.1995 T4         2 LUT      0.089537
    190 H372       85.7468   64.7994   36.8653 T4         2 LUT      0.089537
    191 H371       85.6952   63.3508   35.9461 T4         2 LUT      0.089537
    192 H363       88.1258   66.0087   35.2563 T4         2 LUT      0.089537
    193 H362       87.0458   67.0246   34.4212 T4         2 LUT      0.089537
    194 H361       86.6420   66.8181   36.1229 T4         2 LUT      0.089537
    195 H222       87.5261   63.9891   33.7365 U2         2 LUT      0.127376
    196 H221       86.0058   63.3851   33.2880 U2         2 LUT      0.127376
    197 H203       71.7797   62.9187   40.2108 R7         2 LUT      0.087068
    198 H202       72.8828   61.5404   40.0455 R7         2 LUT      0.087068
    199 H201       71.3692   61.4198   40.8135 R7         2 LUT      0.087068
    200 H193       67.3847   59.9218   44.6629 R4         2 LUT      0.089716
    201 H192       68.1839   60.5644   43.3072 R4         2 LUT      0.089716
    202 H191       69.0837   59.6456   44.2922 R4         2 LUT      0.089716
    203 H183       64.6057   63.7871   47.4874 R1         2 LUT      0.094572
    204 H182       66.2739   64.2694   47.0792 R1         2 LUT      0.094572
    205 H181       65.5330   62.7606   46.3989 R1         2 LUT      0.094572
    206 H173       69.3412   60.6346   51.0222 T4         2 LUT      0.093752
    207 H172       69.1131   59.8721   49.4336 T4         2 LUT      0.093752
    208 H171       69.7863   61.4101   49.5383 T4         2 LUT      0.093752
    209 H163       65.6543   60.7425   50.5435 T4         2 LUT      0.093752
    210 H162       66.7493   59.4520   50.4102 T4         2 LUT      0.093752
    211 H161       66.8014   60.4472   51.7841 T4         2 LUT      0.093752
    212 HO3        65.8141   65.2363   51.6131 Q1         2 LUT      0.300121
    213 H8         68.5229   62.9960   46.7043 U7         2 LUT      0.080784
    214 H7         67.7505   60.2072   47.3217 U6         2 LUT      0.042190
    215 H42        64.6830   62.7170   50.1330 U5         2 LUT      0.145166
    216 H41        65.0409   64.2302   49.5136 U5         2 LUT      0.145166
    217 H35        76.4291   64.1124   42.1061 T3         2 LUT      0.077919
    218 H34        76.9744   63.9228   39.0862 T2         2 LUT      0.073626
    219 H32        78.8825   64.4286   38.2832 T1         2 LUT      0.092510
    220 H31        80.8616   66.3569   39.6290 U9         2 LUT      0.070048
    221 H30        80.8284   64.8838   37.0977 U8         2 LUT      0.085442
    222 H3         66.0789   62.9431   51.7842 U3         2 LUT     -0.031596
    223 H28        82.7141   64.5840   36.1461 U7         2 LUT      0.084728
    224 H27        84.2063   67.2359   35.7672 U6         2 LUT      0.087291
    225 H26        84.1640   64.5325   34.0776 Q6         2 LUT      0.075325
    226 H24        85.3092   66.6835   31.0931 Q5         2 LUT      0.094482
    227 H23        87.4650   65.9657   32.5688 U3         2 LUT     -0.024869
    228 H22        68.2125   62.5647   51.6536 U2         2 LUT      0.127376
    229 H21        68.5515   63.3656   50.1984 U2         2 LUT      0.127376
    230 H15        74.6453   63.2916   39.9431 T3         2 LUT      0.093200
    231 H14        74.3960   63.7020   42.9262 T2         2 LUT      0.068865
    232 H12        72.2836   63.5756   43.8591 T1         2 LUT      0.095507
    233 H11        70.2401   61.5494   42.7201 U9         2 LUT      0.068930
    234 H10        70.3828   62.9988   45.3882 U8         2 LUT      0.083911
    235 H1         87.3354   64.9247   30.4020 Q1         2 LUT      0.297311
@<TRIPOS>BOND
    1     6     1 1
    2     7     2 1
    3     8     3 1
    4     9     4 1
    5    11     4 1
    6    12     6 1
    7    13     9 1
    8    16     9 1
    9    25     5 1
   10    25    16 1
   11    26    10 1
   12    26    17 1
   13    27    18 1
   14    28    14 1
   15    28    19 1
   16    29    12 1
   17    30    13 1
   18    31    24 1
   19    32     1 1
   20    32    25 1
   21    33    21 1
   22    33    26 1
   23    34    22 1
   24    34    27 1
   25    35    23 1
   26    35    28 1
   27    36    12 1
   28    36    24 1
   29    37    13 1
   30    37    15 1
   31    38    31 1
   32    39    20 1
   33    39    32 1
   34    40     2 1
   35    40    33 1
   36    41     3 1
   37    41    34 1
   38    42     4 1
   39    42    35 1
   40    43    38 1
   41    44     5 1
   42    44    17 1
   43    44    39 1
   44    45    10 1
   45    45    18 1
   46    45    40 1
   47    46    19 1
   48    46    41 1
   49    47    14 1
   50    47    16 1
   51    47    42 1
   52    48    38 1
   53    49    48 1
   54    50    49 1
   55    51    50 1
   56    52    51 1
   57    53    51 1
   58    54    53 1
   59    55    54 1
   60    56    55 1
   61    57    56 1
   62    58    56 1
   63    59    58 1
   64    60    59 1
   65    61    60 1
   66    62    61 1
   67    63    61 1
   68    64    27 1
   69    64    46 1
   70    65     5 1
   71    65    10 1
   72    65    64 1
   73    65    14 1
   74    66    23 1
   75    67    23 1
   76    68    23 1
   77    69    22 1
   78    70    22 1
   79    71    22 1
   80    72    21 1
   81    73    21 1
   82    74    21 1
   83    75    20 1
   84    76    20 1
   85    77    20 1
   86    78    15 1
   87    79    15 1
   88    80    15 1
   89    81     8 1
   90    82     8 1
   91    83     8 1
   92    84     7 1
   93    85     7 1
   94    86     6 1
   95    87     6 1
   96    88     3 1
   97    89     3 1
   98    90     1 1
   99    91     1 1
  100    92    63 1
  101    93    63 1
  102    94    63 1
  103    95    62 1
  104    96    62 1
  105    97    62 1
  106    98    60 1
  107    99    60 1
  108   100    59 1
  109   101    59 1
  110   102    58 1
  111   103    58 1
  112   104    57 1
  113   105    57 1
  114   106    57 1
  115   107    55 1
  116   108    55 1
  117   109    54 1
  118   110    54 1
  119   111    53 1
  120   112    53 1
  121   113    19 1
  122   114    18 1
  123   115    17 1
  124   116     9 1
  125   117     2 1
  126   118    52 1
  127   119    52 1
  128   120    52 1
  129   121    51 1
  130   122    50 1
  131   123    50 1
  132   124    49 1
  133   125    49 1
  134   126    48 1
  135   127    48 1
  136   128    43 1
  137   129    43 1
  138   130    43 1
  139   131    39 1
  140   132    32 1
  141   133    31 1
  142   134    61 1
  143   135    56 1
  144   136    24 1
  145   137    24 1
  146   139   138 1
  147   140   139 1
  148   141   140 1
  149   142   140 1
  150   143   142 1
  151   144   138 1
  152   144   143 1
  153   145   144 1
  154   146   145 1
  155   147   146 1
  156   148   147 1
  157   149   148 1
  158   150   149 1
  159   151   150 1
  160   152   151 1
  161   153   152 1
  162   154   138 1
  163   155   138 1
  164   156   143 1
  165   157   147 1
  166   158   151 1
  167   160   159 1
  168   161   160 1
  169   162   161 1
  170   163   161 1
  171   164   163 1
  172   165   159 1
  173   165   164 1
  174   166   165 1
  175   167   166 1
  176   168   167 1
  177   169   168 1
  178   170   169 1
  179   171   170 1
  180   172   171 1
  181   173   172 1
  182   174   153 1
  183   174   173 1
  184   175   159 1
  185   176   159 1
  186   177   164 1
  187   178   168 1
  188   179   172 1
  189   180   179 1
  190   181   179 1
  191   182   179 1
  192   183   178 1
  193   184   178 1
  194   185   178 1
  195   186   177 1
  196   187   177 1
  197   188   177 1
  198   189   176 1
  199   190   176 1
  200   191   176 1
  201   192   175 1
  202   193   175 1
  203   194   175 1
  204   195   160 1
  205   196   160 1
  206   197   158 1
  207   198   158 1
  208   199   158 1
  209   200   157 1
  210   201   157 1
  211   202   157 1
  212   203   156 1
  213   204   156 1
  214   205   156 1
  215   206   155 1
  216   207   155 1
  217   208   155 1
  218   209   154 1
  219   210   154 1
  220   211   154 1
  221   212   141 1
  222   213   146 1
  223   214   145 1
  224   215   142 1
  225   216   142 1
  226   217   174 1
  227   218   173 1
  228   219   171 1
  229   220   170 1
  230   221   169 1
  231   222   140 1
  232   223   167 1
  233   224   166 1
  234   225   165 1
  235   226   163 1
  236   227   161 1
  237   228   139 1
  238   229   139 1
  239   230   153 1
  240   231   152 1
  241   232   150 1
  242   233   149 1
  243   234   148 1
  244   235   162 1
  245   65    153 1
  246   65    174 1
@<TRIPOS>SUBSTRUCTURE
      1 CLA               1 ****               0 ****  **** 
      2 LUT             138 ****               0 ****  **** 
