@<TRIPOS>MOLECULE
Cpptraj generated mol2 file.
  235   246     2     0     0
SMALL
USER_CHARGES


@<TRIPOS>ATOM
      1 CAA        79.6169   58.2370   34.7226 a2         1 CLA     -0.055900
      2 CAB        79.9740   62.4468   43.6147 c8         1 CLA     -0.148500
      3 CAC        73.4401   57.6842   43.7968 a2         1 CLA     -0.012600
      4 CAD        75.5716   55.5583   36.4119 ck         1 CLA      0.398800
      5 NA         78.7801   58.7326   38.2357 ns         1 CLA     -0.225500
      6 CBA        80.8496   57.8988   33.7507 a2         1 CLA     -0.135000
      7 CBB        81.0936   62.4077   44.4334 c0         1 CLA     -0.395200
      8 CBC        73.5419   56.1713   43.4335 a3         1 CLA     -0.037700
      9 CBD        77.0858   56.0634   36.1194 a1         1 CLA     -0.053900
     10 NB         78.8750   60.2667   40.7602 nm         1 CLA     -0.295700
     11 OBD        75.0223   54.6310   35.8575 o2         1 CLA     -0.494600
     12 CGA        81.1714   56.4548   33.5972 c4         1 CLA      0.827000
     13 CGD        78.1791   54.9198   36.2104 c4         1 CLA      0.655300
     14 ND         75.9687   57.8776   39.0066 nm         1 CLA     -0.291600
     15 CED        79.3192   53.2140   37.6452 a3         1 CLA      0.005400
     16 CHA        77.3712   57.1781   37.0212 cs         1 CLA     -0.123800
     17 CHB        80.5810   60.1994   39.0367 aa         1 CLA     -0.291900
     18 CHC        77.4966   60.5456   42.8925 aa         1 CLA     -0.090400
     19 CHD        74.1426   57.8964   40.5826 aa         1 CLA     -0.052000
     20 CMA        82.1158   57.9744   37.5486 a3         1 CLA     -0.230700
     21 CMB        81.9766   62.1450   41.0150 a3         1 CLA     -0.180800
     22 CMC        75.6000   59.7791   45.1185 a3         1 CLA     -0.134000
     23 CMD        72.8502   55.7949   38.4768 a3         1 CLA     -0.141100
     24 C1         82.1832   54.5025   34.5952 a2         1 CLA      0.023000
     25 C1A        78.5283   57.9261   37.1277 ac         1 CLA     -0.015100
     26 C1B        80.0345   60.6854   40.2848 cr         1 CLA      0.054700
     27 C1C        76.3299   59.8608   42.6861 cn         1 CLA     -0.005600
     28 C1D        74.6674   57.4827   39.3360 ap         1 CLA     -0.047300
     29 O1A        80.7618   55.7855   32.6550 o2         1 CLA     -0.610800
     30 O1D        78.8407   54.4816   35.2679 o2         1 CLA     -0.558200
     31 C2         82.6855   54.1802   35.8926 c8         1 CLA     -0.325100
     32 C2A        79.8400   57.8146   36.2488 a1         1 CLA      0.098600
     33 C2B        80.6299   61.6121   41.2158 cb         1 CLA      0.088500
     34 C2C        75.4005   59.4155   43.7473 cb         1 CLA      0.053700
     35 C2D        74.0703   56.5799   38.3814 cb         1 CLA      0.058900
     36 O2A        82.0220   55.9748   34.6128 o1         1 CLA     -0.437200
     37 O2D        78.3315   54.3667   37.5186 o1         1 CLA     -0.357600
     38 C3         83.7372   53.4150   36.1532 c5         1 CLA      0.031200
     39 C3A        80.8726   58.7370   36.9855 a1         1 CLA      0.166800
     40 C3B        79.7588   61.6736   42.3510 cb         1 CLA      0.035000
     41 C3C        74.4986   58.5742   43.1036 cb         1 CLA     -0.089900
     42 C3D        75.1022   56.3788   37.5006 cb         1 CLA     -0.035900
     43 C4         83.4186   52.0580   36.6020 a3         1 CLA     -0.053300
     44 C4A        80.0147   59.2793   38.1436 ac         1 CLA      0.001800
     45 C4B        78.6399   60.8126   42.0276 cn         1 CLA     -0.020900
     46 C4C        74.8733   58.5823   41.6155 cr         1 CLA     -0.044400
     47 C4D        76.2267   57.2171   37.8733 c6         1 CLA     -0.046000
     48 C5         85.1063   54.0471   36.3475 a2         1 CLA     -0.070400
     49 C6         85.2288   54.8608   37.6133 a2         1 CLA      0.043900
     50 C7         86.6556   55.2555   37.9415 a2         1 CLA     -0.150000
     51 C8         86.7829   56.2095   39.0900 a1         1 CLA      0.064200
     52 C9         86.2568   57.6751   38.7853 a3         1 CLA     -0.259300
     53 C10        88.3081   56.2960   39.5661 a2         1 CLA     -0.071900
     54 C11        88.7118   57.1080   40.8805 a2         1 CLA      0.014500
     55 C12        88.0974   56.5305   42.0918 a2         1 CLA     -0.112100
     56 C13        88.3295   57.3221   43.3770 a1         1 CLA      0.089200
     57 C14        89.7717   57.0124   43.8593 a3         1 CLA     -0.239100
     58 C15        87.1463   57.0049   44.4202 a2         1 CLA     -0.102200
     59 C16        87.2411   57.6426   45.8559 a2         1 CLA      0.023900
     60 C17        86.0158   57.4892   46.7589 a2         1 CLA     -0.105700
     61 C18        86.0947   58.3384   48.0521 a1         1 CLA      0.206800
     62 C19        84.8422   58.3716   48.9265 a3         1 CLA     -0.280100
     63 C20        87.2843   57.9749   48.8748 a3         1 CLA     -0.280100
     64 NC         76.0209   59.2391   41.4904 nx         1 CLA     -0.309200
     65 MG         77.3472   59.1301   39.7859 mg         1 CLA      0.895000
     66 HMD3       72.7776   55.1330   39.3586 dc         1 CLA      0.064300
     67 HMD2       71.9667   56.4929   38.4674 dc         1 CLA      0.064300
     68 HMD1       72.8712   55.2213   37.5958 dc         1 CLA      0.064300
     69 HMC3       74.7260   59.4118   45.6853 dc         1 CLA      0.052100
     70 HMC2       76.4949   59.2867   45.3896 dc         1 CLA      0.052100
     71 HMC1       75.7575   60.8349   45.2659 dc         1 CLA      0.052100
     72 HMB3       82.0521   62.7461   40.1106 dc         1 CLA      0.063600
     73 HMB2       82.4293   62.6786   41.9181 dc         1 CLA      0.063600
     74 HMB1       82.6872   61.3174   40.8922 dc         1 CLA      0.063600
     75 HMA3       82.7547   57.6920   36.6840 dc         1 CLA      0.058300
     76 HMA2       82.6660   58.4500   38.4125 dc         1 CLA      0.058300
     77 HMA1       81.8048   57.0111   37.9272 dc         1 CLA      0.058300
     78 HED3       80.3549   53.6091   37.5774 dc         1 CLA      0.079300
     79 HED2       79.1552   52.6515   38.5633 dc         1 CLA      0.079300
     80 HED1       79.1469   52.5168   36.8879 dc         1 CLA      0.079300
     81 HBC3       74.6015   55.9381   43.6469 dc         1 CLA      0.016300
     82 HBC2       72.8561   55.5646   44.0358 dc         1 CLA      0.016300
     83 HBC1       73.3487   56.0308   42.3856 dc         1 CLA      0.016300
     84 HBB2       81.1402   62.8435   45.4672 da         1 CLA      0.183000
     85 HBB1       81.9132   61.7463   44.1684 da         1 CLA      0.183000
     86 HBA2       80.5453   58.1430   32.7554 dc         1 CLA      0.029400
     87 HBA1       81.7200   58.5506   34.0493 dc         1 CLA      0.029400
     88 HAC2       73.5348   57.5947   44.8519 dc         1 CLA      0.029300
     89 HAC1       72.4727   58.1617   43.7554 dc         1 CLA      0.029300
     90 HAA2       78.7005   57.7630   34.4204 dc         1 CLA      0.028700
     91 HAA1       79.4363   59.2678   34.7395 dc         1 CLA      0.028700
     92 H203       87.2902   56.9963   49.2204 dc         1 CLA      0.065600
     93 H202       88.2313   58.1583   48.3205 dc         1 CLA      0.065600
     94 H201       87.4218   58.6884   49.6399 dc         1 CLA      0.065600
     95 H193       84.7945   59.3018   49.5503 dc         1 CLA      0.065600
     96 H192       83.9209   58.4469   48.3918 dc         1 CLA      0.065600
     97 H191       84.8870   57.4686   49.5106 dc         1 CLA      0.065600
     98 H172       85.1687   57.8856   46.1811 dc         1 CLA      0.027600
     99 H171       85.6860   56.4732   46.7466 dc         1 CLA      0.027600
    100 H162       88.0538   57.0521   46.2701 dc         1 CLA      0.002900
    101 H161       87.5263   58.7261   45.7419 dc         1 CLA      0.002900
    102 H152       86.1768   57.1792   44.0514 dc         1 CLA      0.029100
    103 H151       87.2241   55.8969   44.5105 dc         1 CLA      0.029100
    104 H143       90.1068   57.6598   44.6499 dc         1 CLA      0.063600
    105 H142       89.7200   55.9932   44.3324 dc         1 CLA      0.063600
    106 H141       90.5754   56.9195   43.1763 dc         1 CLA      0.063600
    107 H122       87.0422   56.4239   41.9351 dc         1 CLA      0.032500
    108 H121       88.5325   55.4722   42.1640 dc         1 CLA      0.032500
    109 H112       89.7896   56.9252   41.0175 dc         1 CLA      0.006600
    110 H111       88.4981   58.1664   40.9036 dc         1 CLA      0.006600
    111 H102       88.7255   55.2635   39.6901 dc         1 CLA      0.024100
    112 H101       88.8944   56.7582   38.7565 dc         1 CLA      0.024100
    113 HHD        73.1240   57.6957   40.8645 da         1 CLA      0.174300
    114 HHC        77.6255   61.0774   43.8770 da         1 CLA      0.136800
    115 HHB        81.5273   60.6927   38.6825 da         1 CLA      0.138300
    116 HBD        77.0861   56.4251   35.1316 dc         1 CLA      0.107700
    117 HAB        79.0891   62.9112   44.0209 da         1 CLA      0.155200
    118 H93        86.4296   58.1599   39.7711 dc         1 CLA      0.069500
    119 H92        86.7533   58.2575   38.0310 dc         1 CLA      0.069500
    120 H91        85.2093   57.5431   38.6316 dc         1 CLA      0.069500
    121 H8         86.2761   55.6429   39.8898 dc         1 CLA      0.029300
    122 H72        87.2154   54.3382   38.1036 dc         1 CLA      0.044400
    123 H71        87.0707   55.7360   37.0757 dc         1 CLA      0.044400
    124 H62        84.6114   55.6830   37.4153 dc         1 CLA      0.015600
    125 H61        84.7822   54.4182   38.5379 dc         1 CLA      0.015600
    126 H52        85.8245   53.1962   36.4192 dc         1 CLA      0.033200
    127 H51        85.4509   54.5974   35.4876 dc         1 CLA      0.033200
    128 H43        83.8752   51.3488   36.0348 dc         1 CLA      0.037000
    129 H42        83.8172   51.9649   37.5795 dc         1 CLA      0.037000
    130 H41        82.3518   52.0154   36.5292 dc         1 CLA      0.037000
    131 H3A        81.2291   59.5961   36.3956 dc         1 CLA      0.041100
    132 H2A        80.1675   56.7617   36.3297 dc         1 CLA      0.083100
    133 H2         82.3331   54.7699   36.8001 da         1 CLA      0.180900
    134 H18        86.2036   59.3199   47.6746 dc         1 CLA     -0.003900
    135 H13        88.2877   58.3501   43.0816 dc         1 CLA      0.019700
    136 H12        81.2304   54.0652   34.4187 dc         1 CLA      0.120400
    137 H11        82.7969   54.2054   33.7673 dc         1 CLA      0.120400
    138 C1         69.1047   61.9172   50.5840 Z1         2 LUT      0.509236
    139 C2         69.2564   63.1623   51.4288 Z2         2 LUT     -0.434695
    140 C3         68.0412   64.0904   51.4347 Z3         2 LUT      0.437453
    141 O3         68.4982   65.4235   51.7619 S1         2 LUT     -0.547129
    142 C4         67.2124   64.0510   50.1720 Z4         2 LUT     -0.468603
    143 C5         67.8868   63.5140   48.9907 Z5         2 LUT      0.279246
    144 C6         68.7162   62.3790   49.1126 Z6         2 LUT     -0.305473
    145 C7         69.6194   62.0605   47.9561 Z7         2 LUT      0.069402
    146 C8         70.6965   62.7508   47.3996 Z8         2 LUT     -0.191631
    147 C9         71.3489   62.4209   46.1213 Z9         2 LUT      0.196698
    148 C10        72.4706   63.1668   45.7206 Y1         2 LUT     -0.208611
    149 C11        73.2720   63.1019   44.5197 Y2         2 LUT      0.030784
    150 C12        74.5952   63.5778   44.4138 Y3         2 LUT     -0.220316
    151 C13        75.3634   63.6206   43.1852 Y4         2 LUT      0.215937
    152 C14        76.6226   64.2251   43.1618 Y5         2 LUT     -0.185793
    153 C15        77.5772   64.2483   42.0411 Y6         2 LUT     -0.057835
    154 C16        67.9583   61.2469   51.3269 Y7         2 LUT     -0.405615
    155 C17        70.3771   61.0972   50.7582 Y7         2 LUT     -0.405615
    156 C18        67.6777   64.4265   47.7574 Y9         2 LUT     -0.369639
    157 C19        70.9093   61.2748   45.2977 W1         2 LUT     -0.333362
    158 C20        74.6393   63.0061   41.9097 W2         2 LUT     -0.323439
    159 C21        88.6019   65.0149   35.4928 Z1         2 LUT      0.406104
    160 C22        89.1375   64.0116   34.4059 Z2         2 LUT     -0.404965
    161 C23        89.5268   64.7369   33.1450 Z3         2 LUT      0.391255
    162 O23        89.9633   63.7472   32.1285 S1         2 LUT     -0.528210
    163 C24        88.5154   65.7949   32.7083 W6         2 LUT     -0.258361
    164 C25        87.5770   66.2897   33.4750 Z5         2 LUT      0.133546
    165 C26        87.2954   65.6366   34.8636 W8         2 LUT     -0.147008
    166 C27        86.3440   66.3684   35.8377 Z7         2 LUT      0.023843
    167 C28        85.4649   65.7439   36.6120 Z8         2 LUT     -0.216987
    168 C29        84.8653   66.3633   37.8924 Z9         2 LUT      0.206524
    169 C30        83.8490   65.7206   38.5895 Y1         2 LUT     -0.215556
    170 C31        83.1534   65.9932   39.8390 Y2         2 LUT      0.025142
    171 C32        81.9337   65.4782   40.1320 Y3         2 LUT     -0.212209
    172 C33        81.0830   65.6980   41.3064 Y4         2 LUT      0.240937
    173 C34        79.8345   65.1061   41.2090 Y5         2 LUT     -0.218862
    174 C35        78.7405   65.0328   42.1065 Y6         2 LUT     -0.023547
    175 C36        89.7200   66.1628   35.7696 Y7         2 LUT     -0.393485
    176 C37        88.4127   64.1790   36.7472 Y7         2 LUT     -0.393485
    177 C38        86.6411   67.4249   33.0476 Y9         2 LUT     -0.387526
    178 C39        85.3257   67.7727   38.2491 W1         2 LUT     -0.322618
    179 C40        81.3144   66.8883   42.2067 W2         2 LUT     -0.358472
    180 H403       81.3424   67.8851   41.6586 R7         2 LUT      0.097720
    181 H402       80.5857   66.9269   43.0470 R7         2 LUT      0.097720
    182 H401       82.2734   66.6298   42.6867 R7         2 LUT      0.097720
    183 H393       84.6598   68.3518   38.9670 R4         2 LUT      0.082505
    184 H392       86.3618   67.7572   38.5792 R4         2 LUT      0.082505
    185 H391       85.4255   68.2884   37.3235 R4         2 LUT      0.082505
    186 H383       87.0211   68.0201   32.1767 R1         2 LUT      0.104030
    187 H382       85.6445   67.3025   32.6777 R1         2 LUT      0.104030
    188 H381       86.7030   68.1512   33.7962 R1         2 LUT      0.104030
    189 H373       89.3938   63.7301   37.0303 T4         2 LUT      0.089537
    190 H372       88.0487   64.7352   37.7089 T4         2 LUT      0.089537
    191 H371       87.8111   63.3801   36.6072 T4         2 LUT      0.089537
    192 H363       89.8214   66.9627   34.9343 T4         2 LUT      0.089537
    193 H362       89.5328   66.7689   36.6308 T4         2 LUT      0.089537
    194 H361       90.7665   65.8671   35.8164 T4         2 LUT      0.089537
    195 H222       89.8997   63.4532   34.8973 U2         2 LUT      0.127376
    196 H221       88.3249   63.2401   34.2323 U2         2 LUT      0.127376
    197 H203       74.8380   61.9331   41.7576 R7         2 LUT      0.087068
    198 H202       73.5923   63.2688   41.7936 R7         2 LUT      0.087068
    199 H201       75.0458   63.4774   41.0232 R7         2 LUT      0.087068
    200 H193       71.3880   61.2504   44.2953 R4         2 LUT      0.089716
    201 H192       70.8865   60.4058   45.8964 R4         2 LUT      0.089716
    202 H191       69.8735   61.4497   45.0919 R4         2 LUT      0.089716
    203 H183       66.6551   64.7011   47.5952 R1         2 LUT      0.094572
    204 H182       68.3125   65.2869   47.8088 R1         2 LUT      0.094572
    205 H181       67.9944   63.8510   46.8761 R1         2 LUT      0.094572
    206 H173       71.2478   61.7219   50.6534 T4         2 LUT      0.093752
    207 H172       70.3584   60.5280   51.6997 T4         2 LUT      0.093752
    208 H171       70.4821   60.3175   50.0107 T4         2 LUT      0.093752
    209 H163       68.2459   60.7922   52.2560 T4         2 LUT      0.093752
    210 H162       66.9759   61.7367   51.4110 T4         2 LUT      0.093752
    211 H161       67.6171   60.4313   50.7787 T4         2 LUT      0.093752
    212 HO3        67.8328   65.9909   52.0979 Q1         2 LUT      0.300121
    213 H8         71.1743   63.6207   47.9434 U7         2 LUT      0.080784
    214 H7         69.3522   61.2334   47.2697 U6         2 LUT      0.042190
    215 H42        66.3004   63.5590   50.1573 U5         2 LUT      0.145166
    216 H41        66.9726   65.1554   49.9675 U5         2 LUT      0.145166
    217 H35        78.8870   65.5531   43.0084 T3         2 LUT      0.077919
    218 H34        79.7272   64.4924   40.3393 T2         2 LUT      0.073626
    219 H32        81.5321   64.9873   39.3079 T1         2 LUT      0.092510
    220 H31        83.6275   66.5136   40.6017 U9         2 LUT      0.070048
    221 H30        83.6208   64.7277   38.2124 U8         2 LUT      0.085442
    222 H3         67.3973   63.8439   52.3097 U3         2 LUT     -0.031596
    223 H28        85.0447   64.8262   36.3030 U7         2 LUT      0.084728
    224 H27        86.7345   67.3326   36.1577 U6         2 LUT      0.087291
    225 H26        86.6320   64.8409   34.4985 Q6         2 LUT      0.075325
    226 H24        88.6602   66.2052   31.7179 Q5         2 LUT      0.094482
    227 H23        90.4216   65.2556   33.3512 U3         2 LUT     -0.024869
    228 H22        69.4102   62.9026   52.4646 U2         2 LUT      0.127376
    229 H21        70.0523   63.8309   51.1721 U2         2 LUT      0.127376
    230 H15        77.3920   63.6860   41.1831 T3         2 LUT      0.093200
    231 H14        77.0512   64.5811   44.1318 T2         2 LUT      0.068865
    232 H12        75.0219   64.0141   45.2586 T1         2 LUT      0.095507
    233 H11        72.7878   62.5875   43.6991 U9         2 LUT      0.068930
    234 H10        72.8432   63.9346   46.3914 U8         2 LUT      0.083911
    235 H1         90.2896   64.2002   31.3355 Q1         2 LUT      0.297311
@<TRIPOS>BOND
    1     6     1 1
    2     7     2 1
    3     8     3 1
    4     9     4 1
    5    11     4 1
    6    12     6 1
    7    13     9 1
    8    16     9 1
    9    25     5 1
   10    25    16 1
   11    26    10 1
   12    26    17 1
   13    27    18 1
   14    28    14 1
   15    28    19 1
   16    29    12 1
   17    30    13 1
   18    31    24 1
   19    32     1 1
   20    32    25 1
   21    33    21 1
   22    33    26 1
   23    34    22 1
   24    34    27 1
   25    35    23 1
   26    35    28 1
   27    36    12 1
   28    36    24 1
   29    37    13 1
   30    37    15 1
   31    38    31 1
   32    39    20 1
   33    39    32 1
   34    40     2 1
   35    40    33 1
   36    41     3 1
   37    41    34 1
   38    42     4 1
   39    42    35 1
   40    43    38 1
   41    44     5 1
   42    44    17 1
   43    44    39 1
   44    45    10 1
   45    45    18 1
   46    45    40 1
   47    46    19 1
   48    46    41 1
   49    47    14 1
   50    47    16 1
   51    47    42 1
   52    48    38 1
   53    49    48 1
   54    50    49 1
   55    51    50 1
   56    52    51 1
   57    53    51 1
   58    54    53 1
   59    55    54 1
   60    56    55 1
   61    57    56 1
   62    58    56 1
   63    59    58 1
   64    60    59 1
   65    61    60 1
   66    62    61 1
   67    63    61 1
   68    64    27 1
   69    64    46 1
   70    65     5 1
   71    65    10 1
   72    65    64 1
   73    65    14 1
   74    66    23 1
   75    67    23 1
   76    68    23 1
   77    69    22 1
   78    70    22 1
   79    71    22 1
   80    72    21 1
   81    73    21 1
   82    74    21 1
   83    75    20 1
   84    76    20 1
   85    77    20 1
   86    78    15 1
   87    79    15 1
   88    80    15 1
   89    81     8 1
   90    82     8 1
   91    83     8 1
   92    84     7 1
   93    85     7 1
   94    86     6 1
   95    87     6 1
   96    88     3 1
   97    89     3 1
   98    90     1 1
   99    91     1 1
  100    92    63 1
  101    93    63 1
  102    94    63 1
  103    95    62 1
  104    96    62 1
  105    97    62 1
  106    98    60 1
  107    99    60 1
  108   100    59 1
  109   101    59 1
  110   102    58 1
  111   103    58 1
  112   104    57 1
  113   105    57 1
  114   106    57 1
  115   107    55 1
  116   108    55 1
  117   109    54 1
  118   110    54 1
  119   111    53 1
  120   112    53 1
  121   113    19 1
  122   114    18 1
  123   115    17 1
  124   116     9 1
  125   117     2 1
  126   118    52 1
  127   119    52 1
  128   120    52 1
  129   121    51 1
  130   122    50 1
  131   123    50 1
  132   124    49 1
  133   125    49 1
  134   126    48 1
  135   127    48 1
  136   128    43 1
  137   129    43 1
  138   130    43 1
  139   131    39 1
  140   132    32 1
  141   133    31 1
  142   134    61 1
  143   135    56 1
  144   136    24 1
  145   137    24 1
  146   139   138 1
  147   140   139 1
  148   141   140 1
  149   142   140 1
  150   143   142 1
  151   144   138 1
  152   144   143 1
  153   145   144 1
  154   146   145 1
  155   147   146 1
  156   148   147 1
  157   149   148 1
  158   150   149 1
  159   151   150 1
  160   152   151 1
  161   153   152 1
  162   154   138 1
  163   155   138 1
  164   156   143 1
  165   157   147 1
  166   158   151 1
  167   160   159 1
  168   161   160 1
  169   162   161 1
  170   163   161 1
  171   164   163 1
  172   165   159 1
  173   165   164 1
  174   166   165 1
  175   167   166 1
  176   168   167 1
  177   169   168 1
  178   170   169 1
  179   171   170 1
  180   172   171 1
  181   173   172 1
  182   174   153 1
  183   174   173 1
  184   175   159 1
  185   176   159 1
  186   177   164 1
  187   178   168 1
  188   179   172 1
  189   180   179 1
  190   181   179 1
  191   182   179 1
  192   183   178 1
  193   184   178 1
  194   185   178 1
  195   186   177 1
  196   187   177 1
  197   188   177 1
  198   189   176 1
  199   190   176 1
  200   191   176 1
  201   192   175 1
  202   193   175 1
  203   194   175 1
  204   195   160 1
  205   196   160 1
  206   197   158 1
  207   198   158 1
  208   199   158 1
  209   200   157 1
  210   201   157 1
  211   202   157 1
  212   203   156 1
  213   204   156 1
  214   205   156 1
  215   206   155 1
  216   207   155 1
  217   208   155 1
  218   209   154 1
  219   210   154 1
  220   211   154 1
  221   212   141 1
  222   213   146 1
  223   214   145 1
  224   215   142 1
  225   216   142 1
  226   217   174 1
  227   218   173 1
  228   219   171 1
  229   220   170 1
  230   221   169 1
  231   222   140 1
  232   223   167 1
  233   224   166 1
  234   225   165 1
  235   226   163 1
  236   227   161 1
  237   228   139 1
  238   229   139 1
  239   230   153 1
  240   231   152 1
  241   232   150 1
  242   233   149 1
  243   234   148 1
  244   235   162 1
  245   65    153 1
  246   65    174 1
@<TRIPOS>SUBSTRUCTURE
      1 CLA               1 ****               0 ****  **** 
      2 LUT             138 ****               0 ****  **** 
