@<TRIPOS>MOLECULE
Cpptraj generated mol2 file.
  235   246     2     0     0
SMALL
USER_CHARGES


@<TRIPOS>ATOM
      1 CAA        79.2432   59.3257   33.7233 a2         1 CLA     -0.055900
      2 CAB        78.5368   61.9874   43.0209 c8         1 CLA     -0.148500
      3 CAC        71.7266   58.2539   41.4996 a2         1 CLA     -0.012600
      4 CAD        74.8771   56.9102   34.1329 ck         1 CLA      0.398800
      5 NA         77.9722   59.2929   37.0046 ns         1 CLA     -0.225500
      6 CBA        80.5812   59.2173   32.8418 a2         1 CLA     -0.135000
      7 CBB        79.0625   63.1603   43.4885 c0         1 CLA     -0.395200
      8 CBC        71.8956   56.7513   41.7776 a3         1 CLA     -0.037700
      9 CBD        76.3259   57.4603   33.9535 a1         1 CLA     -0.053900
     10 NB         77.7094   60.4924   39.7276 nm         1 CLA     -0.295700
     11 OBD        74.2907   56.1946   33.3382 o2         1 CLA     -0.494600
     12 CGA        81.1212   57.8993   32.3882 c4         1 CLA      0.827000
     13 CGD        77.3167   56.3470   33.5882 c4         1 CLA      0.655300
     14 ND         75.1076   58.4326   37.1636 nm         1 CLA     -0.291600
     15 CED        77.7420   54.0203   33.7351 a3         1 CLA      0.005400
     16 CHA        76.6104   58.1743   35.2923 cs         1 CLA     -0.123800
     17 CHB        79.7591   60.1757   38.4391 aa         1 CLA     -0.291900
     18 CHC        76.1085   60.8073   41.6192 aa         1 CLA     -0.090400
     19 CHD        73.1388   58.3140   38.6208 aa         1 CLA     -0.052000
     20 CMA        81.3447   58.2531   36.5874 a3         1 CLA     -0.230700
     21 CMB        81.0474   61.4959   41.0773 a3         1 CLA     -0.180800
     22 CMC        73.7752   59.7896   43.4068 a3         1 CLA     -0.134000
     23 CMD        71.9884   56.6943   36.0924 a3         1 CLA     -0.141100
     24 C1         82.0473   55.8157   33.0924 a2         1 CLA      0.023000
     25 C1A        77.8472   58.6619   35.7621 ac         1 CLA     -0.015100
     26 C1B        79.0844   60.6845   39.5486 cr         1 CLA      0.054700
     27 C1C        75.0258   60.0494   41.1742 cn         1 CLA     -0.005600
     28 C1D        73.8420   58.0586   37.4002 ap         1 CLA     -0.047300
     29 O1A        81.1488   57.4492   31.2333 o2         1 CLA     -0.610800
     30 O1D        78.1454   56.3789   32.7181 o2         1 CLA     -0.558200
     31 C2         82.4198   55.1488   34.3871 c8         1 CLA     -0.325100
     32 C2A        79.2610   58.6068   35.0412 a1         1 CLA      0.098600
     33 C2B        79.6485   61.3878   40.7572 cb         1 CLA      0.088500
     34 C2C        73.8550   59.6376   41.9117 cb         1 CLA      0.053700
     35 C2D        73.3093   57.3994   36.2643 cb         1 CLA      0.058900
     36 O2A        81.5115   57.1482   33.4845 o1         1 CLA     -0.437200
     37 O2D        77.0507   55.1904   34.3412 o1         1 CLA     -0.357600
     38 C3         83.2803   54.1707   34.5115 c5         1 CLA      0.031200
     39 C3A        80.2522   59.1362   36.1508 a1         1 CLA      0.166800
     40 C3B        78.5603   61.4780   41.6152 cb         1 CLA      0.035000
     41 C3C        73.0097   58.9028   41.0914 cb         1 CLA     -0.089900
     42 C3D        74.3704   57.4299   35.3570 cb         1 CLA     -0.035900
     43 C4         82.7831   52.8931   34.9317 a3         1 CLA     -0.053300
     44 C4A        79.3178   59.5428   37.2583 ac         1 CLA      0.001800
     45 C4B        77.3685   60.8795   40.9811 cn         1 CLA     -0.020900
     46 C4C        73.6726   58.8607   39.8283 cr         1 CLA     -0.044400
     47 C4D        75.4159   58.0517   36.0124 c6         1 CLA     -0.046000
     48 C5         84.7919   54.3480   34.5689 a2         1 CLA     -0.070400
     49 C6         85.3454   55.7102   35.0648 a2         1 CLA      0.043900
     50 C7         85.1490   55.8392   36.5780 a2         1 CLA     -0.150000
     51 C8         85.0366   57.2348   37.2198 a1         1 CLA      0.064200
     52 C9         86.3180   57.9871   36.8109 a3         1 CLA     -0.259300
     53 C10        84.8955   57.0572   38.7848 a2         1 CLA     -0.071900
     54 C11        84.9074   58.3601   39.6284 a2         1 CLA      0.014500
     55 C12        84.7941   58.0547   41.0757 a2         1 CLA     -0.112100
     56 C13        84.6395   59.2422   42.0391 a1         1 CLA      0.089200
     57 C14        85.8738   60.1977   41.8560 a3         1 CLA     -0.239100
     58 C15        84.6838   58.6996   43.5688 a2         1 CLA     -0.102200
     59 C16        83.5557   57.8084   43.8975 a2         1 CLA      0.023900
     60 C17        83.4624   57.5539   45.3969 a2         1 CLA     -0.105700
     61 C18        84.4792   56.5479   45.9760 a1         1 CLA      0.206800
     62 C19        84.5867   56.5875   47.5482 a3         1 CLA     -0.280100
     63 C20        84.2549   55.1187   45.4971 a3         1 CLA     -0.280100
     64 NC         74.8868   59.4775   39.9115 nx         1 CLA     -0.309200
     65 MG         76.3807   59.6047   38.4179 mg         1 CLA      0.895000
     66 HMD3       71.6295   56.0721   36.9709 dc         1 CLA      0.064300
     67 HMD2       71.1940   57.3422   35.8147 dc         1 CLA      0.064300
     68 HMD1       72.1135   55.9885   35.3003 dc         1 CLA      0.064300
     69 HMC3       72.7618   59.8834   43.8662 dc         1 CLA      0.052100
     70 HMC2       74.1652   58.8798   43.9132 dc         1 CLA      0.052100
     71 HMC1       74.2911   60.6239   43.7885 dc         1 CLA      0.052100
     72 HMB3       81.3306   62.5236   41.2190 dc         1 CLA      0.063600
     73 HMB2       81.2883   61.0281   42.0364 dc         1 CLA      0.063600
     74 HMB1       81.7153   61.1678   40.2335 dc         1 CLA      0.063600
     75 HMA3       82.0045   58.0171   35.7287 dc         1 CLA      0.058300
     76 HMA2       81.9642   58.6459   37.3633 dc         1 CLA      0.058300
     77 HMA1       81.0314   57.2910   36.9800 dc         1 CLA      0.058300
     78 HED3       77.5608   53.0915   34.2920 dc         1 CLA      0.079300
     79 HED2       77.5248   53.8283   32.6620 dc         1 CLA      0.079300
     80 HED1       78.7666   54.0801   33.9910 dc         1 CLA      0.079300
     81 HBC3       72.8087   56.6420   42.3531 dc         1 CLA      0.016300
     82 HBC2       71.0951   56.3770   42.4049 dc         1 CLA      0.016300
     83 HBC1       72.0931   56.3034   40.8131 dc         1 CLA      0.016300
     84 HBB2       78.9277   63.4577   44.5400 da         1 CLA      0.183000
     85 HBB1       79.5882   63.8400   42.7750 da         1 CLA      0.183000
     86 HBA2       80.4900   59.9126   31.9945 dc         1 CLA      0.029400
     87 HBA1       81.3901   59.7341   33.3745 dc         1 CLA      0.029400
     88 HAC2       71.3071   58.7286   42.3673 dc         1 CLA      0.029300
     89 HAC1       71.0994   58.3218   40.6327 dc         1 CLA      0.029300
     90 HAA2       78.3649   58.9556   33.2101 dc         1 CLA      0.028700
     91 HAA1       78.9643   60.3827   33.8101 dc         1 CLA      0.028700
     92 H203       84.9038   54.4434   46.0283 dc         1 CLA      0.065600
     93 H202       83.2340   54.8185   45.6471 dc         1 CLA      0.065600
     94 H201       84.5938   54.9787   44.5255 dc         1 CLA      0.065600
     95 H193       85.3647   55.9414   47.9998 dc         1 CLA      0.065600
     96 H192       84.8632   57.6116   47.9116 dc         1 CLA      0.065600
     97 H191       83.6073   56.3790   47.9619 dc         1 CLA      0.065600
     98 H172       83.5166   58.4918   45.8657 dc         1 CLA      0.027600
     99 H171       82.5233   57.0700   45.7105 dc         1 CLA      0.027600
    100 H162       82.6393   58.3857   43.6487 dc         1 CLA      0.002900
    101 H161       83.5972   56.7843   43.3930 dc         1 CLA      0.002900
    102 H152       85.5971   58.1766   43.7278 dc         1 CLA      0.029100
    103 H151       84.7062   59.6187   44.2493 dc         1 CLA      0.029100
    104 H143       85.8667   60.8982   41.0179 dc         1 CLA      0.063600
    105 H142       85.9061   60.8407   42.7242 dc         1 CLA      0.063600
    106 H141       86.7693   59.5587   41.7948 dc         1 CLA      0.063600
    107 H122       83.8842   57.4319   41.2311 dc         1 CLA      0.032500
    108 H121       85.7116   57.4174   41.2218 dc         1 CLA      0.032500
    109 H112       85.8431   58.8444   39.3858 dc         1 CLA      0.006600
    110 H111       84.0914   58.9414   39.3175 dc         1 CLA      0.006600
    111 H102       83.9819   56.5100   38.9655 dc         1 CLA      0.024100
    112 H101       85.6773   56.4055   39.0818 dc         1 CLA      0.024100
    113 HHD        72.0957   58.0038   38.7590 da         1 CLA      0.174300
    114 HHC        76.0557   61.2598   42.6645 da         1 CLA      0.136800
    115 HHB        80.8098   60.4070   38.4298 da         1 CLA      0.138300
    116 HBD        76.3033   58.2040   33.1597 dc         1 CLA      0.107700
    117 HAB        78.0291   61.3670   43.7508 da         1 CLA      0.155200
    118 H93        86.2866   58.9868   37.0771 dc         1 CLA      0.069500
    119 H92        87.2347   57.5120   37.2062 dc         1 CLA      0.069500
    120 H91        86.6273   58.0047   35.7619 dc         1 CLA      0.069500
    121 H8         84.1454   57.7451   36.8992 dc         1 CLA      0.029300
    122 H72        84.1755   55.4336   36.7578 dc         1 CLA      0.044400
    123 H71        85.9353   55.3000   37.0622 dc         1 CLA      0.044400
    124 H62        86.3746   55.7541   34.8309 dc         1 CLA      0.015600
    125 H61        84.8988   56.5560   34.5038 dc         1 CLA      0.015600
    126 H52        85.2848   53.6286   35.1713 dc         1 CLA      0.033200
    127 H51        85.1489   54.2169   33.5626 dc         1 CLA      0.033200
    128 H43        82.9620   52.8274   36.0142 dc         1 CLA      0.037000
    129 H42        81.7216   52.7837   34.7873 dc         1 CLA      0.037000
    130 H41        83.3389   52.0471   34.4107 dc         1 CLA      0.037000
    131 H3A        80.7031   59.9800   35.7604 dc         1 CLA      0.041100
    132 H2A        79.3942   57.5638   34.8627 dc         1 CLA      0.083100
    133 H2         82.0260   55.4853   35.3028 da         1 CLA      0.180900
    134 H18        85.4391   56.9307   45.6642 dc         1 CLA     -0.003900
    135 H13        83.8331   59.9114   41.8001 dc         1 CLA      0.019700
    136 H12        81.2557   55.2280   32.8027 dc         1 CLA      0.120400
    137 H11        82.8550   55.7984   32.3773 dc         1 CLA      0.120400
    138 C1         68.5042   61.5645   49.1546 Z1         2 LUT      0.509236
    139 C2         68.2499   62.4334   50.4064 Z2         2 LUT     -0.434695
    140 C3         66.8524   62.9773   50.3939 Z3         2 LUT      0.437453
    141 O3         66.6924   63.9328   51.4597 S1         2 LUT     -0.547129
    142 C4         66.6332   63.7451   49.1088 Z4         2 LUT     -0.468603
    143 C5         67.1372   63.1427   47.7913 Z5         2 LUT      0.279246
    144 C6         68.0348   62.0738   47.8351 Z6         2 LUT     -0.305473
    145 C7         68.7568   61.6618   46.5536 Z7         2 LUT      0.069402
    146 C8         69.9366   62.2456   46.1237 Z8         2 LUT     -0.191631
    147 C9         70.5678   62.1950   44.8985 Z9         2 LUT      0.196698
    148 C10        71.6731   62.8722   44.6593 Y1         2 LUT     -0.208611
    149 C11        72.5060   63.0211   43.5113 Y2         2 LUT      0.030784
    150 C12        73.7078   63.7574   43.3448 Y3         2 LUT     -0.220316
    151 C13        74.5469   63.8980   42.1651 Y4         2 LUT      0.215937
    152 C14        75.7414   64.5245   42.2930 Y5         2 LUT     -0.185793
    153 C15        76.8219   64.6537   41.3394 Y6         2 LUT     -0.057835
    154 C16        67.7987   60.2356   49.2723 Y7         2 LUT     -0.405615
    155 C17        69.9886   61.1860   49.2121 Y7         2 LUT     -0.405615
    156 C18        66.8557   63.9947   46.5622 Y9         2 LUT     -0.369639
    157 C19        69.8839   61.5598   43.7237 W1         2 LUT     -0.333362
    158 C20        74.1423   63.3858   40.7652 W2         2 LUT     -0.323439
    159 C21        87.8273   65.7300   34.7707 Z1         2 LUT      0.406104
    160 C22        88.5448   65.1290   33.4876 Z2         2 LUT     -0.404965
    161 C23        88.7679   66.0146   32.3406 Z3         2 LUT      0.391255
    162 O23        89.3627   65.1910   31.3352 S1         2 LUT     -0.528210
    163 C24        87.5394   66.9171   32.0643 W6         2 LUT     -0.258361
    164 C25        86.5631   67.1042   32.9915 Z5         2 LUT      0.133546
    165 C26        86.4172   66.2869   34.3495 W8         2 LUT     -0.147008
    166 C27        85.6860   66.9833   35.4368 Z7         2 LUT      0.023843
    167 C28        84.4226   66.7049   35.9630 Z8         2 LUT     -0.216987
    168 C29        83.9329   67.1009   37.2493 Z9         2 LUT      0.206524
    169 C30        82.8268   66.4919   37.8070 Y1         2 LUT     -0.215556
    170 C31        82.0108   66.6386   38.9627 Y2         2 LUT      0.025142
    171 C32        80.8575   66.0201   39.3065 Y3         2 LUT     -0.212209
    172 C33        80.0973   66.3106   40.4573 Y4         2 LUT      0.240937
    173 C34        78.9542   65.5366   40.6010 Y5         2 LUT     -0.218862
    174 C35        77.8814   65.4419   41.5851 Y6         2 LUT     -0.023547
    175 C36        88.8208   66.6932   35.4941 Y7         2 LUT     -0.393485
    176 C37        87.7520   64.4803   35.7464 Y7         2 LUT     -0.393485
    177 C38        85.3856   68.0270   32.6104 Y9         2 LUT     -0.387526
    178 C39        84.5959   68.3139   37.9421 W1         2 LUT     -0.322618
    179 C40        80.4400   67.4242   41.4229 W2         2 LUT     -0.358472
    180 H403       79.9856   67.2443   42.3620 R7         2 LUT      0.097720
    181 H402       81.4298   67.5506   41.6822 R7         2 LUT      0.097720
    182 H401       80.1305   68.3548   41.0102 R7         2 LUT      0.097720
    183 H393       85.3565   67.9572   38.7061 R4         2 LUT      0.082505
    184 H392       85.0493   69.0876   37.3537 R4         2 LUT      0.082505
    185 H391       83.8474   68.9168   38.4853 R4         2 LUT      0.082505
    186 H383       85.5699   68.6376   31.7509 R1         2 LUT      0.104030
    187 H382       84.5544   67.4097   32.2963 R1         2 LUT      0.104030
    188 H381       85.0938   68.7262   33.4578 R1         2 LUT      0.104030
    189 H373       88.6789   64.1087   36.1673 T4         2 LUT      0.089537
    190 H372       87.0983   64.5673   36.6776 T4         2 LUT      0.089537
    191 H371       87.3683   63.6156   35.2986 T4         2 LUT      0.089537
    192 H363       88.4162   67.0404   36.4680 T4         2 LUT      0.089537
    193 H362       89.8031   66.2130   35.8066 T4         2 LUT      0.089537
    194 H361       89.1083   67.5511   34.8204 T4         2 LUT      0.089537
    195 H222       89.5589   64.8503   33.7514 U2         2 LUT      0.127376
    196 H221       87.8372   64.2820   33.1530 U2         2 LUT      0.127376
    197 H203       74.9543   63.2445   40.0707 R7         2 LUT      0.087068
    198 H202       73.5793   62.4269   40.8671 R7         2 LUT      0.087068
    199 H201       73.4075   64.0857   40.3420 R7         2 LUT      0.087068
    200 H193       68.8515   61.8163   43.8037 R4         2 LUT      0.089716
    201 H192       70.2393   61.8506   42.7459 R4         2 LUT      0.089716
    202 H191       69.7097   60.4463   43.8426 R4         2 LUT      0.089716
    203 H183       65.9211   64.6195   46.7934 R1         2 LUT      0.094572
    204 H182       67.6945   64.6657   46.4814 R1         2 LUT      0.094572
    205 H181       66.8347   63.3387   45.6409 R1         2 LUT      0.094572
    206 H173       70.1824   60.6356   50.1418 T4         2 LUT      0.093752
    207 H172       70.3666   60.5589   48.3720 T4         2 LUT      0.093752
    208 H171       70.5959   62.0430   49.2675 T4         2 LUT      0.093752
    209 H163       66.7019   60.3254   49.4802 T4         2 LUT      0.093752
    210 H162       67.7278   59.6511   48.3689 T4         2 LUT      0.093752
    211 H161       68.0738   59.5268   50.0609 T4         2 LUT      0.093752
    212 HO3        66.4843   63.4916   52.3244 Q1         2 LUT      0.300121
    213 H8         70.2545   63.0127   46.8128 U7         2 LUT      0.080784
    214 H7         68.2638   60.9320   45.9344 U6         2 LUT      0.042190
    215 H42        65.5633   63.8944   49.0503 U5         2 LUT      0.145166
    216 H41        66.9579   64.7357   49.2590 U5         2 LUT      0.145166
    217 H35        77.9241   65.9197   42.6176 T3         2 LUT      0.077919
    218 H34        78.8116   64.7441   39.7730 T2         2 LUT      0.073626
    219 H32        80.5024   65.3005   38.5920 T1         2 LUT      0.092510
    220 H31        82.2751   67.3078   39.7229 U9         2 LUT      0.070048
    221 H30        82.3426   65.6808   37.2628 U8         2 LUT      0.085442
    222 H3         66.0544   62.2251   50.5310 U3         2 LUT     -0.031596
    223 H28        83.7135   66.0164   35.4246 U7         2 LUT      0.084728
    224 H27        86.3149   67.7252   35.9577 U6         2 LUT      0.087291
    225 H26        85.7903   65.4172   34.0010 Q6         2 LUT      0.075325
    226 H24        87.6671   67.4527   31.0319 Q5         2 LUT      0.094482
    227 H23        89.4740   66.7652   32.6884 U3         2 LUT     -0.024869
    228 H22        68.4414   61.8574   51.3234 U2         2 LUT      0.127376
    229 H21        68.9288   63.3271   50.5168 U2         2 LUT      0.127376
    230 H15        76.7361   64.0780   40.4321 T3         2 LUT      0.093200
    231 H14        76.1067   64.8531   43.3044 T2         2 LUT      0.068865
    232 H12        73.9997   64.2749   44.1890 T1         2 LUT      0.095507
    233 H11        72.3153   62.4986   42.5652 U9         2 LUT      0.068930
    234 H10        71.9783   63.3861   45.5780 U8         2 LUT      0.083911
    235 H1         88.9507   65.3480   30.4908 Q1         2 LUT      0.297311
@<TRIPOS>BOND
    1     6     1 1
    2     7     2 1
    3     8     3 1
    4     9     4 1
    5    11     4 1
    6    12     6 1
    7    13     9 1
    8    16     9 1
    9    25     5 1
   10    25    16 1
   11    26    10 1
   12    26    17 1
   13    27    18 1
   14    28    14 1
   15    28    19 1
   16    29    12 1
   17    30    13 1
   18    31    24 1
   19    32     1 1
   20    32    25 1
   21    33    21 1
   22    33    26 1
   23    34    22 1
   24    34    27 1
   25    35    23 1
   26    35    28 1
   27    36    12 1
   28    36    24 1
   29    37    13 1
   30    37    15 1
   31    38    31 1
   32    39    20 1
   33    39    32 1
   34    40     2 1
   35    40    33 1
   36    41     3 1
   37    41    34 1
   38    42     4 1
   39    42    35 1
   40    43    38 1
   41    44     5 1
   42    44    17 1
   43    44    39 1
   44    45    10 1
   45    45    18 1
   46    45    40 1
   47    46    19 1
   48    46    41 1
   49    47    14 1
   50    47    16 1
   51    47    42 1
   52    48    38 1
   53    49    48 1
   54    50    49 1
   55    51    50 1
   56    52    51 1
   57    53    51 1
   58    54    53 1
   59    55    54 1
   60    56    55 1
   61    57    56 1
   62    58    56 1
   63    59    58 1
   64    60    59 1
   65    61    60 1
   66    62    61 1
   67    63    61 1
   68    64    27 1
   69    64    46 1
   70    65     5 1
   71    65    10 1
   72    65    64 1
   73    65    14 1
   74    66    23 1
   75    67    23 1
   76    68    23 1
   77    69    22 1
   78    70    22 1
   79    71    22 1
   80    72    21 1
   81    73    21 1
   82    74    21 1
   83    75    20 1
   84    76    20 1
   85    77    20 1
   86    78    15 1
   87    79    15 1
   88    80    15 1
   89    81     8 1
   90    82     8 1
   91    83     8 1
   92    84     7 1
   93    85     7 1
   94    86     6 1
   95    87     6 1
   96    88     3 1
   97    89     3 1
   98    90     1 1
   99    91     1 1
  100    92    63 1
  101    93    63 1
  102    94    63 1
  103    95    62 1
  104    96    62 1
  105    97    62 1
  106    98    60 1
  107    99    60 1
  108   100    59 1
  109   101    59 1
  110   102    58 1
  111   103    58 1
  112   104    57 1
  113   105    57 1
  114   106    57 1
  115   107    55 1
  116   108    55 1
  117   109    54 1
  118   110    54 1
  119   111    53 1
  120   112    53 1
  121   113    19 1
  122   114    18 1
  123   115    17 1
  124   116     9 1
  125   117     2 1
  126   118    52 1
  127   119    52 1
  128   120    52 1
  129   121    51 1
  130   122    50 1
  131   123    50 1
  132   124    49 1
  133   125    49 1
  134   126    48 1
  135   127    48 1
  136   128    43 1
  137   129    43 1
  138   130    43 1
  139   131    39 1
  140   132    32 1
  141   133    31 1
  142   134    61 1
  143   135    56 1
  144   136    24 1
  145   137    24 1
  146   139   138 1
  147   140   139 1
  148   141   140 1
  149   142   140 1
  150   143   142 1
  151   144   138 1
  152   144   143 1
  153   145   144 1
  154   146   145 1
  155   147   146 1
  156   148   147 1
  157   149   148 1
  158   150   149 1
  159   151   150 1
  160   152   151 1
  161   153   152 1
  162   154   138 1
  163   155   138 1
  164   156   143 1
  165   157   147 1
  166   158   151 1
  167   160   159 1
  168   161   160 1
  169   162   161 1
  170   163   161 1
  171   164   163 1
  172   165   159 1
  173   165   164 1
  174   166   165 1
  175   167   166 1
  176   168   167 1
  177   169   168 1
  178   170   169 1
  179   171   170 1
  180   172   171 1
  181   173   172 1
  182   174   153 1
  183   174   173 1
  184   175   159 1
  185   176   159 1
  186   177   164 1
  187   178   168 1
  188   179   172 1
  189   180   179 1
  190   181   179 1
  191   182   179 1
  192   183   178 1
  193   184   178 1
  194   185   178 1
  195   186   177 1
  196   187   177 1
  197   188   177 1
  198   189   176 1
  199   190   176 1
  200   191   176 1
  201   192   175 1
  202   193   175 1
  203   194   175 1
  204   195   160 1
  205   196   160 1
  206   197   158 1
  207   198   158 1
  208   199   158 1
  209   200   157 1
  210   201   157 1
  211   202   157 1
  212   203   156 1
  213   204   156 1
  214   205   156 1
  215   206   155 1
  216   207   155 1
  217   208   155 1
  218   209   154 1
  219   210   154 1
  220   211   154 1
  221   212   141 1
  222   213   146 1
  223   214   145 1
  224   215   142 1
  225   216   142 1
  226   217   174 1
  227   218   173 1
  228   219   171 1
  229   220   170 1
  230   221   169 1
  231   222   140 1
  232   223   167 1
  233   224   166 1
  234   225   165 1
  235   226   163 1
  236   227   161 1
  237   228   139 1
  238   229   139 1
  239   230   153 1
  240   231   152 1
  241   232   150 1
  242   233   149 1
  243   234   148 1
  244   235   162 1
  245   65    153 1
  246   65    174 1
@<TRIPOS>SUBSTRUCTURE
      1 CLA               1 ****               0 ****  **** 
      2 LUT             138 ****               0 ****  **** 
