@<TRIPOS>MOLECULE
Cpptraj generated mol2 file.
  235   246     2     0     0
SMALL
USER_CHARGES


@<TRIPOS>ATOM
      1 CAA        77.8448   57.4644   33.8491 a2         1 CLA     -0.055900
      2 CAB        78.1612   61.7688   42.5917 c8         1 CLA     -0.148500
      3 CAC        71.2864   57.8191   42.6483 a2         1 CLA     -0.012600
      4 CAD        73.6982   55.1859   35.1761 ck         1 CLA      0.398800
      5 NA         76.9249   58.4043   37.1438 ns         1 CLA     -0.225500
      6 CBA        79.0600   56.9745   33.0740 a2         1 CLA     -0.135000
      7 CBB        79.3435   61.8393   43.2783 c0         1 CLA     -0.395200
      8 CBC        71.4440   56.3235   42.9411 a3         1 CLA     -0.037700
      9 CBD        75.2359   55.6360   34.8577 a1         1 CLA     -0.053900
     10 NB         76.8635   60.0222   39.6549 nm         1 CLA     -0.295700
     11 OBD        72.9876   54.3105   34.6067 o2         1 CLA     -0.494600
     12 CGA        79.3338   55.4736   32.9670 c4         1 CLA      0.827000
     13 CGD        75.9982   54.3498   35.0017 c4         1 CLA      0.655300
     14 ND         74.2030   57.3734   37.9498 nm         1 CLA     -0.291600
     15 CED        76.3695   52.3746   36.4350 a3         1 CLA      0.005400
     16 CHA        75.5884   56.7194   35.8799 cs         1 CLA     -0.123800
     17 CHB        78.6916   59.7977   38.0018 aa         1 CLA     -0.291900
     18 CHC        75.6435   60.3199   41.7499 aa         1 CLA     -0.090400
     19 CHD        72.3976   57.2615   39.6726 aa         1 CLA     -0.052000
     20 CMA        80.3681   57.7244   36.5578 a3         1 CLA     -0.230700
     21 CMB        80.3650   61.5584   40.2349 a3         1 CLA     -0.180800
     22 CMC        73.4938   59.6183   43.9667 a3         1 CLA     -0.134000
     23 CMD        71.0523   55.4541   37.4167 a3         1 CLA     -0.141100
     24 C1         80.8081   53.7720   33.8775 a2         1 CLA      0.023000
     25 C1A        76.7572   57.4518   36.1159 ac         1 CLA     -0.015100
     26 C1B        78.1976   60.2744   39.2503 cr         1 CLA      0.054700
     27 C1C        74.4891   59.5192   41.4971 cn         1 CLA     -0.005600
     28 C1D        72.9174   56.9569   38.4279 ap         1 CLA     -0.047300
     29 O1A        78.8863   54.7440   32.1189 o2         1 CLA     -0.610800
     30 O1D        77.0872   54.1932   34.3926 o2         1 CLA     -0.558200
     31 C2         81.2250   53.5117   35.2148 c8         1 CLA     -0.325100
     32 C2A        78.0674   57.2201   35.3553 a1         1 CLA      0.098600
     33 C2B        78.8935   61.0466   40.2886 cb         1 CLA      0.088500
     34 C2C        73.4737   59.1869   42.5514 cb         1 CLA      0.053700
     35 C2D        72.3529   56.1407   37.3290 cb         1 CLA      0.058900
     36 O2A        80.4074   55.1513   33.7984 o1         1 CLA     -0.437200
     37 O2D        75.4964   53.4740   35.9842 o1         1 CLA     -0.357600
     38 C3         81.6706   52.3614   35.6994 c5         1 CLA      0.031200
     39 C3A        79.0125   58.2732   36.0671 a1         1 CLA      0.166800
     40 C3B        77.9694   61.1960   41.2710 cb         1 CLA      0.035000
     41 C3C        72.4957   58.3978   41.9031 cb         1 CLA     -0.089900
     42 C3D        73.3535   55.9434   36.3547 cb         1 CLA     -0.035900
     43 C4         80.7194   51.2890   36.1107 a3         1 CLA     -0.053300
     44 C4A        78.1672   58.8739   37.1021 ac         1 CLA      0.001800
     45 C4B        76.7531   60.6025   40.9043 cn         1 CLA     -0.020900
     46 C4C        73.0321   58.1374   40.5559 cr         1 CLA     -0.044400
     47 C4D        74.4109   56.7294   36.7400 c6         1 CLA     -0.046000
     48 C5         83.1387   52.1735   35.5781 a2         1 CLA     -0.070400
     49 C6         84.2160   53.2312   35.8319 a2         1 CLA      0.043900
     50 C7         84.3626   53.5780   37.3399 a2         1 CLA     -0.150000
     51 C8         84.9789   54.9687   37.5928 a1         1 CLA      0.064200
     52 C9         86.4974   55.0282   37.1429 a3         1 CLA     -0.259300
     53 C10        84.8912   55.3183   39.0993 a2         1 CLA     -0.071900
     54 C11        83.5518   55.6207   39.7475 a2         1 CLA      0.014500
     55 C12        83.7019   56.2345   41.1242 a2         1 CLA     -0.112100
     56 C13        82.4027   56.6280   41.8607 a1         1 CLA      0.089200
     57 C14        81.5333   57.5942   41.0281 a3         1 CLA     -0.239100
     58 C15        82.6250   56.9499   43.3688 a2         1 CLA     -0.102200
     59 C16        82.8941   58.4245   43.6818 a2         1 CLA      0.023900
     60 C17        82.9744   58.6820   45.1931 a2         1 CLA     -0.105700
     61 C18        82.8004   60.1545   45.6660 a1         1 CLA      0.206800
     62 C19        81.4019   60.7250   45.9164 a3         1 CLA     -0.280100
     63 C20        83.6611   60.3702   46.8932 a3         1 CLA     -0.280100
     64 NC         74.2235   58.8299   40.3390 nx         1 CLA     -0.309200
     65 MG         75.4491   58.7581   38.6292 mg         1 CLA      0.895000
     66 HMD3       70.2390   56.0943   37.3122 dc         1 CLA      0.064300
     67 HMD2       70.8741   54.8268   36.5886 dc         1 CLA      0.064300
     68 HMD1       70.9191   54.8811   38.3711 dc         1 CLA      0.064300
     69 HMC3       72.9670   60.5595   44.1744 dc         1 CLA      0.052100
     70 HMC2       73.0956   58.7819   44.5649 dc         1 CLA      0.052100
     71 HMC1       74.5638   59.8025   44.2502 dc         1 CLA      0.052100
     72 HMB3       80.5140   61.8232   39.2433 dc         1 CLA      0.063600
     73 HMB2       80.5598   62.5064   40.8321 dc         1 CLA      0.063600
     74 HMB1       81.0334   60.7196   40.4187 dc         1 CLA      0.063600
     75 HMA3       80.7007   56.9331   35.9600 dc         1 CLA      0.058300
     76 HMA2       81.0807   58.5450   36.6130 dc         1 CLA      0.058300
     77 HMA1       80.2007   57.3425   37.5665 dc         1 CLA      0.058300
     78 HED3       77.0098   52.1102   35.6198 dc         1 CLA      0.079300
     79 HED2       76.9532   52.6325   37.3065 dc         1 CLA      0.079300
     80 HED1       75.7893   51.4949   36.5754 dc         1 CLA      0.079300
     81 HBC3       71.1172   56.0366   43.9268 dc         1 CLA      0.016300
     82 HBC2       71.0470   55.7788   42.0335 dc         1 CLA      0.016300
     83 HBC1       72.5385   56.1024   42.9316 dc         1 CLA      0.016300
     84 HBB2       79.4333   62.1356   44.3546 da         1 CLA      0.183000
     85 HBB1       80.2732   61.5658   42.8226 da         1 CLA      0.183000
     86 HBA2       78.9079   57.3465   32.0330 dc         1 CLA      0.029400
     87 HBA1       79.9286   57.4466   33.5410 dc         1 CLA      0.029400
     88 HAC2       71.2297   58.3484   43.6018 dc         1 CLA      0.029300
     89 HAC1       70.4213   58.0885   42.1116 dc         1 CLA      0.029300
     90 HAA2       77.0314   56.9519   33.4587 dc         1 CLA      0.028700
     91 HAA1       77.5701   58.4585   33.6968 dc         1 CLA      0.028700
     92 H203       84.7166   60.1677   46.6088 dc         1 CLA      0.065600
     93 H202       83.5745   61.4243   47.1857 dc         1 CLA      0.065600
     94 H201       83.3272   59.7487   47.7308 dc         1 CLA      0.065600
     95 H193       80.8608   60.5027   45.0056 dc         1 CLA      0.065600
     96 H192       81.0312   60.1729   46.8315 dc         1 CLA      0.065600
     97 H191       81.4918   61.8199   46.1624 dc         1 CLA      0.065600
     98 H172       82.1380   58.1737   45.7606 dc         1 CLA      0.027600
     99 H171       83.7922   58.2245   45.6304 dc         1 CLA      0.027600
    100 H162       83.7654   58.8696   43.2994 dc         1 CLA      0.002900
    101 H161       82.0825   58.9731   43.2364 dc         1 CLA      0.002900
    102 H152       81.5869   56.7813   43.7203 dc         1 CLA      0.029100
    103 H151       83.2332   56.2720   43.9217 dc         1 CLA      0.029100
    104 H143       81.2354   57.0227   40.1604 dc         1 CLA      0.063600
    105 H142       80.6032   57.8728   41.4984 dc         1 CLA      0.063600
    106 H141       82.0988   58.3749   40.6302 dc         1 CLA      0.063600
    107 H122       84.2473   55.5131   41.7420 dc         1 CLA      0.032500
    108 H121       84.2928   57.1372   41.1048 dc         1 CLA      0.032500
    109 H112       83.1339   56.4152   39.1063 dc         1 CLA      0.006600
    110 H111       82.9644   54.6826   39.6436 dc         1 CLA      0.006600
    111 H102       85.3404   54.5069   39.6090 dc         1 CLA      0.024100
    112 H101       85.5036   56.1931   39.2941 dc         1 CLA      0.024100
    113 HHD        71.4153   56.8968   40.0032 da         1 CLA      0.174300
    114 HHC        75.6878   60.6776   42.7928 da         1 CLA      0.136800
    115 HHB        79.7582   60.1548   37.8759 da         1 CLA      0.138300
    116 HBD        75.2480   55.8084   33.8030 dc         1 CLA      0.107700
    117 HAB        77.2802   62.0820   43.2278 da         1 CLA      0.155200
    118 H93        86.6989   54.6070   36.1934 dc         1 CLA      0.069500
    119 H92        86.7539   56.0637   36.9711 dc         1 CLA      0.069500
    120 H91        87.0442   54.4939   37.9209 dc         1 CLA      0.069500
    121 H8         84.3986   55.6058   36.9664 dc         1 CLA      0.029300
    122 H72        83.3452   53.5976   37.7378 dc         1 CLA      0.044400
    123 H71        84.9502   52.7636   37.8792 dc         1 CLA      0.044400
    124 H62        85.2551   52.9481   35.5294 dc         1 CLA      0.015600
    125 H61        84.0756   54.1223   35.2828 dc         1 CLA      0.015600
    126 H52        83.2897   51.3427   36.1892 dc         1 CLA      0.033200
    127 H51        83.2566   51.8898   34.5471 dc         1 CLA      0.033200
    128 H43        80.7014   51.2325   37.2741 dc         1 CLA      0.037000
    129 H42        79.7063   51.5127   35.7704 dc         1 CLA      0.037000
    130 H41        81.1026   50.3793   35.6172 dc         1 CLA      0.037000
    131 H3A        79.1855   59.0740   35.3844 dc         1 CLA      0.041100
    132 H2A        78.4839   56.2059   35.5695 dc         1 CLA      0.083100
    133 H2         81.1824   54.3953   35.9282 da         1 CLA      0.180900
    134 H18        83.1713   60.7936   44.8334 dc         1 CLA     -0.003900
    135 H13        81.7781   55.7244   41.8336 dc         1 CLA      0.019700
    136 H12        79.8500   53.2628   33.7362 dc         1 CLA      0.120400
    137 H11        81.5068   53.4783   33.0735 dc         1 CLA      0.120400
    138 C1         67.7192   60.7988   49.0462 Z1         2 LUT      0.509236
    139 C2         66.4855   60.4759   49.8733 Z2         2 LUT     -0.434695
    140 C3         65.5575   61.6189   50.2571 Z3         2 LUT      0.437453
    141 O3         65.7587   61.9891   51.6052 S1         2 LUT     -0.547129
    142 C4         65.7371   62.8562   49.3499 Z4         2 LUT     -0.468603
    143 C5         66.4189   62.6468   48.1094 Z5         2 LUT      0.279246
    144 C6         67.2949   61.6954   47.9127 Z6         2 LUT     -0.305473
    145 C7         67.8184   61.3310   46.5565 Z7         2 LUT      0.069402
    146 C8         68.9917   61.7791   45.9789 Z8         2 LUT     -0.191631
    147 C9         69.4609   61.4556   44.6263 Z9         2 LUT      0.196698
    148 C10        70.3770   62.3634   44.0505 Y1         2 LUT     -0.208611
    149 C11        71.0504   62.2748   42.7767 Y2         2 LUT      0.030784
    150 C12        72.2395   62.9341   42.4836 Y3         2 LUT     -0.220316
    151 C13        73.0237   62.9213   41.2746 Y4         2 LUT      0.215937
    152 C14        74.2283   63.5281   41.2785 Y5         2 LUT     -0.185793
    153 C15        75.2542   63.6785   40.2914 Y6         2 LUT     -0.057835
    154 C16        68.3539   59.4781   48.5427 Y7         2 LUT     -0.405615
    155 C17        68.7792   61.4970   49.9491 Y7         2 LUT     -0.405615
    156 C18        65.9305   63.5554   46.9833 Y9         2 LUT     -0.369639
    157 C19        68.8112   60.2889   43.9170 W1         2 LUT     -0.333362
    158 C20        72.4900   62.3210   40.0499 W2         2 LUT     -0.323439
    159 C21        86.6602   64.1624   34.7196 Z1         2 LUT      0.406104
    160 C22        87.6824   63.8809   33.6346 Z2         2 LUT     -0.404965
    161 C23        88.2534   65.1430   32.8986 Z3         2 LUT      0.391255
    162 O23        89.0896   64.6660   31.8294 S1         2 LUT     -0.528210
    163 C24        87.1262   66.0938   32.5397 W6         2 LUT     -0.258361
    164 C25        85.8912   66.1143   33.0689 Z5         2 LUT      0.133546
    165 C26        85.4620   65.0840   34.1798 W8         2 LUT     -0.147008
    166 C27        84.7469   65.8300   35.3555 Z7         2 LUT      0.023843
    167 C28        83.6266   65.2629   35.9327 Z8         2 LUT     -0.216987
    168 C29        82.9442   65.7112   37.1479 Z9         2 LUT      0.206524
    169 C30        81.8126   65.0060   37.5880 Y1         2 LUT     -0.215556
    170 C31        81.0208   65.1931   38.7513 Y2         2 LUT      0.025142
    171 C32        79.8136   64.6068   38.9354 Y3         2 LUT     -0.212209
    172 C33        78.8208   64.7283   39.9877 Y4         2 LUT      0.240937
    173 C34        77.6489   64.0869   39.8134 Y5         2 LUT     -0.218862
    174 C35        76.4849   64.1689   40.6576 Y6         2 LUT     -0.023547
    175 C36        87.4158   64.7318   35.9302 Y7         2 LUT     -0.393485
    176 C37        86.2678   62.8070   35.3238 Y7         2 LUT     -0.393485
    177 C38        84.8811   67.0678   32.5089 Y9         2 LUT     -0.387526
    178 C39        83.5389   66.8598   37.9337 W1         2 LUT     -0.322618
    179 C40        79.2309   65.3056   41.2994 W2         2 LUT     -0.358472
    180 H403       79.5846   64.5419   42.0203 R7         2 LUT      0.097720
    181 H402       80.0726   65.9871   41.1646 R7         2 LUT      0.097720
    182 H401       78.5110   65.9485   41.8525 R7         2 LUT      0.097720
    183 H393       82.8104   67.2110   38.6602 R4         2 LUT      0.082505
    184 H392       84.4332   66.5944   38.4618 R4         2 LUT      0.082505
    185 H391       83.8180   67.7209   37.3268 R4         2 LUT      0.082505
    186 H383       85.2560   67.5882   31.6418 R1         2 LUT      0.104030
    187 H382       83.9538   66.6122   32.1893 R1         2 LUT      0.104030
    188 H381       84.6400   67.8939   33.2299 R1         2 LUT      0.104030
    189 H373       85.9554   62.1584   34.4985 T4         2 LUT      0.089537
    190 H372       87.0726   62.3209   35.8800 T4         2 LUT      0.089537
    191 H371       85.3596   62.9471   36.0250 T4         2 LUT      0.089537
    192 H363       88.2607   64.1143   36.1656 T4         2 LUT      0.089537
    193 H362       87.9391   65.6624   35.6765 T4         2 LUT      0.089537
    194 H361       86.9049   65.0138   36.8950 T4         2 LUT      0.089537
    195 H222       88.4949   63.2587   34.0436 U2         2 LUT      0.127376
    196 H221       87.1427   63.2685   32.8063 U2         2 LUT      0.127376
    197 H203       72.5057   61.2910   40.1415 R7         2 LUT      0.087068
    198 H202       71.4461   62.6159   39.9731 R7         2 LUT      0.087068
    199 H201       72.9779   62.5373   39.1181 R7         2 LUT      0.087068
    200 H193       68.7666   59.4751   44.5452 R4         2 LUT      0.089716
    201 H192       67.8753   60.6129   43.4943 R4         2 LUT      0.089716
    202 H191       69.3507   59.8643   43.0966 R4         2 LUT      0.089716
    203 H183       66.6801   64.3061   46.8031 R1         2 LUT      0.094572
    204 H182       65.6682   62.9626   46.0650 R1         2 LUT      0.094572
    205 H181       64.9398   64.0511   47.1773 R1         2 LUT      0.094572
    206 H173       69.5745   61.9527   49.2666 T4         2 LUT      0.093752
    207 H172       68.3451   62.3233   50.5590 T4         2 LUT      0.093752
    208 H171       69.3578   60.8267   50.6254 T4         2 LUT      0.093752
    209 H163       68.6946   58.9030   49.3557 T4         2 LUT      0.093752
    210 H162       67.6423   58.9726   47.9373 T4         2 LUT      0.093752
    211 H161       69.3122   59.6825   48.0667 T4         2 LUT      0.093752
    212 HO3        65.4599   61.3251   52.2494 Q1         2 LUT      0.300121
    213 H8         69.7313   62.3307   46.6453 U7         2 LUT      0.080784
    214 H7         67.1332   60.6562   45.9763 U6         2 LUT      0.042190
    215 H42        64.8238   63.4969   49.1349 U5         2 LUT      0.145166
    216 H41        66.3567   63.5891   49.8188 U5         2 LUT      0.145166
    217 H35        76.7125   64.5548   41.6443 T3         2 LUT      0.077919
    218 H34        77.3960   63.4598   39.0614 T2         2 LUT      0.073626
    219 H32        79.4169   63.9245   38.1948 T1         2 LUT      0.092510
    220 H31        81.2883   65.9789   39.4137 U9         2 LUT      0.070048
    221 H30        81.4699   64.1567   36.9751 U8         2 LUT      0.085442
    222 H3         64.4891   61.2515   50.2073 U3         2 LUT     -0.031596
    223 H28        83.2529   64.3566   35.5130 U7         2 LUT      0.084728
    224 H27        85.1211   66.8200   35.6448 U6         2 LUT      0.087291
    225 H26        84.7113   64.4638   33.7877 Q6         2 LUT      0.075325
    226 H24        87.2496   66.8938   31.8108 Q5         2 LUT      0.094482
    227 H23        88.7662   65.7830   33.5734 U3         2 LUT     -0.024869
    228 H22        65.7996   59.9157   49.2655 U2         2 LUT      0.127376
    229 H21        66.9501   59.9478   50.6752 U2         2 LUT      0.127376
    230 H15        75.0705   63.2153   39.3266 T3         2 LUT      0.093200
    231 H14        74.5368   63.8573   42.2443 T2         2 LUT      0.068865
    232 H12        72.6727   63.5489   43.3420 T1         2 LUT      0.095507
    233 H11        70.5823   61.6370   41.9915 U9         2 LUT      0.068930
    234 H10        70.7217   63.2101   44.6571 U8         2 LUT      0.083911
    235 H1         88.6574   64.6056   30.9218 Q1         2 LUT      0.297311
@<TRIPOS>BOND
    1     6     1 1
    2     7     2 1
    3     8     3 1
    4     9     4 1
    5    11     4 1
    6    12     6 1
    7    13     9 1
    8    16     9 1
    9    25     5 1
   10    25    16 1
   11    26    10 1
   12    26    17 1
   13    27    18 1
   14    28    14 1
   15    28    19 1
   16    29    12 1
   17    30    13 1
   18    31    24 1
   19    32     1 1
   20    32    25 1
   21    33    21 1
   22    33    26 1
   23    34    22 1
   24    34    27 1
   25    35    23 1
   26    35    28 1
   27    36    12 1
   28    36    24 1
   29    37    13 1
   30    37    15 1
   31    38    31 1
   32    39    20 1
   33    39    32 1
   34    40     2 1
   35    40    33 1
   36    41     3 1
   37    41    34 1
   38    42     4 1
   39    42    35 1
   40    43    38 1
   41    44     5 1
   42    44    17 1
   43    44    39 1
   44    45    10 1
   45    45    18 1
   46    45    40 1
   47    46    19 1
   48    46    41 1
   49    47    14 1
   50    47    16 1
   51    47    42 1
   52    48    38 1
   53    49    48 1
   54    50    49 1
   55    51    50 1
   56    52    51 1
   57    53    51 1
   58    54    53 1
   59    55    54 1
   60    56    55 1
   61    57    56 1
   62    58    56 1
   63    59    58 1
   64    60    59 1
   65    61    60 1
   66    62    61 1
   67    63    61 1
   68    64    27 1
   69    64    46 1
   70    65     5 1
   71    65    10 1
   72    65    64 1
   73    65    14 1
   74    66    23 1
   75    67    23 1
   76    68    23 1
   77    69    22 1
   78    70    22 1
   79    71    22 1
   80    72    21 1
   81    73    21 1
   82    74    21 1
   83    75    20 1
   84    76    20 1
   85    77    20 1
   86    78    15 1
   87    79    15 1
   88    80    15 1
   89    81     8 1
   90    82     8 1
   91    83     8 1
   92    84     7 1
   93    85     7 1
   94    86     6 1
   95    87     6 1
   96    88     3 1
   97    89     3 1
   98    90     1 1
   99    91     1 1
  100    92    63 1
  101    93    63 1
  102    94    63 1
  103    95    62 1
  104    96    62 1
  105    97    62 1
  106    98    60 1
  107    99    60 1
  108   100    59 1
  109   101    59 1
  110   102    58 1
  111   103    58 1
  112   104    57 1
  113   105    57 1
  114   106    57 1
  115   107    55 1
  116   108    55 1
  117   109    54 1
  118   110    54 1
  119   111    53 1
  120   112    53 1
  121   113    19 1
  122   114    18 1
  123   115    17 1
  124   116     9 1
  125   117     2 1
  126   118    52 1
  127   119    52 1
  128   120    52 1
  129   121    51 1
  130   122    50 1
  131   123    50 1
  132   124    49 1
  133   125    49 1
  134   126    48 1
  135   127    48 1
  136   128    43 1
  137   129    43 1
  138   130    43 1
  139   131    39 1
  140   132    32 1
  141   133    31 1
  142   134    61 1
  143   135    56 1
  144   136    24 1
  145   137    24 1
  146   139   138 1
  147   140   139 1
  148   141   140 1
  149   142   140 1
  150   143   142 1
  151   144   138 1
  152   144   143 1
  153   145   144 1
  154   146   145 1
  155   147   146 1
  156   148   147 1
  157   149   148 1
  158   150   149 1
  159   151   150 1
  160   152   151 1
  161   153   152 1
  162   154   138 1
  163   155   138 1
  164   156   143 1
  165   157   147 1
  166   158   151 1
  167   160   159 1
  168   161   160 1
  169   162   161 1
  170   163   161 1
  171   164   163 1
  172   165   159 1
  173   165   164 1
  174   166   165 1
  175   167   166 1
  176   168   167 1
  177   169   168 1
  178   170   169 1
  179   171   170 1
  180   172   171 1
  181   173   172 1
  182   174   153 1
  183   174   173 1
  184   175   159 1
  185   176   159 1
  186   177   164 1
  187   178   168 1
  188   179   172 1
  189   180   179 1
  190   181   179 1
  191   182   179 1
  192   183   178 1
  193   184   178 1
  194   185   178 1
  195   186   177 1
  196   187   177 1
  197   188   177 1
  198   189   176 1
  199   190   176 1
  200   191   176 1
  201   192   175 1
  202   193   175 1
  203   194   175 1
  204   195   160 1
  205   196   160 1
  206   197   158 1
  207   198   158 1
  208   199   158 1
  209   200   157 1
  210   201   157 1
  211   202   157 1
  212   203   156 1
  213   204   156 1
  214   205   156 1
  215   206   155 1
  216   207   155 1
  217   208   155 1
  218   209   154 1
  219   210   154 1
  220   211   154 1
  221   212   141 1
  222   213   146 1
  223   214   145 1
  224   215   142 1
  225   216   142 1
  226   217   174 1
  227   218   173 1
  228   219   171 1
  229   220   170 1
  230   221   169 1
  231   222   140 1
  232   223   167 1
  233   224   166 1
  234   225   165 1
  235   226   163 1
  236   227   161 1
  237   228   139 1
  238   229   139 1
  239   230   153 1
  240   231   152 1
  241   232   150 1
  242   233   149 1
  243   234   148 1
  244   235   162 1
  245   65    153 1
  246   65    174 1
@<TRIPOS>SUBSTRUCTURE
      1 CLA               1 ****               0 ****  **** 
      2 LUT             138 ****               0 ****  **** 
