@<TRIPOS>MOLECULE
Cpptraj generated mol2 file.
  235   246     2     0     0
SMALL
USER_CHARGES


@<TRIPOS>ATOM
      1 CAA        78.1101   58.6128   33.7149 a2         1 CLA     -0.055900
      2 CAB        78.2403   62.1617   42.8995 c8         1 CLA     -0.148500
      3 CAC        71.7054   57.6755   42.4782 a2         1 CLA     -0.012600
      4 CAD        73.8829   56.0842   35.0899 ck         1 CLA      0.398800
      5 NA         77.1734   59.0195   37.1661 ns         1 CLA     -0.225500
      6 CBA        79.3175   58.6401   32.8009 a2         1 CLA     -0.135000
      7 CBB        79.3876   61.8785   43.5282 c0         1 CLA     -0.395200
      8 CBC        71.5681   56.2717   41.7898 a3         1 CLA     -0.037700
      9 CBD        75.3672   56.5315   34.7594 a1         1 CLA     -0.053900
     10 NB         76.9825   60.5517   39.7465 nm         1 CLA     -0.295700
     11 OBD        73.2323   55.2424   34.4536 o2         1 CLA     -0.494600
     12 CGA        79.7502   57.1906   32.4325 c4         1 CLA      0.827000
     13 CGD        76.4025   55.3840   34.5109 c4         1 CLA      0.655300
     14 ND         74.3693   58.2279   37.7673 nm         1 CLA     -0.291600
     15 CED        76.8227   53.0424   34.8370 a3         1 CLA      0.005400
     16 CHA        75.8159   57.5613   35.8348 cs         1 CLA     -0.123800
     17 CHB        78.9019   60.4210   38.1950 aa         1 CLA     -0.291900
     18 CHC        75.7702   60.6519   41.9081 aa         1 CLA     -0.090400
     19 CHD        72.5134   58.1739   39.3452 aa         1 CLA     -0.052000
     20 CMA        80.7288   58.6580   36.3164 a3         1 CLA     -0.230700
     21 CMB        80.3317   62.0383   40.3368 a3         1 CLA     -0.180800
     22 CMC        73.6742   59.6291   44.1027 a3         1 CLA     -0.134000
     23 CMD        71.1880   56.2927   37.1512 a3         1 CLA     -0.141100
     24 C1         80.7046   55.2459   33.3784 a2         1 CLA      0.023000
     25 C1A        76.9984   58.2632   36.0053 ac         1 CLA     -0.015100
     26 C1B        78.2644   60.9279   39.3353 cr         1 CLA      0.054700
     27 C1C        74.6231   59.9283   41.6308 cn         1 CLA     -0.005600
     28 C1D        73.1115   57.8255   38.1250 ap         1 CLA     -0.047300
     29 O1A        79.5489   56.6109   31.3811 o2         1 CLA     -0.610800
     30 O1D        77.3971   55.5051   33.8319 o2         1 CLA     -0.558200
     31 C2         81.2962   54.9193   34.7059 c8         1 CLA     -0.325100
     32 C2A        78.3428   58.1283   35.2385 a1         1 CLA      0.098600
     33 C2B        78.9491   61.6289   40.4345 cb         1 CLA      0.088500
     34 C2C        73.5467   59.4707   42.6518 cb         1 CLA      0.053700
     35 C2D        72.5413   56.9903   37.1297 cb         1 CLA      0.058900
     36 O2A        80.4257   56.6748   33.4722 o1         1 CLA     -0.437200
     37 O2D        76.0659   54.2385   35.1723 o1         1 CLA     -0.357600
     38 C3         82.1849   53.9559   34.9891 c5         1 CLA      0.031200
     39 C3A        79.3057   59.1378   35.9172 a1         1 CLA      0.166800
     40 C3B        78.0198   61.6999   41.5151 cb         1 CLA      0.035000
     41 C3C        72.7292   58.5782   41.8774 cb         1 CLA     -0.089900
     42 C3D        73.5554   56.8216   36.1831 cb         1 CLA     -0.035900
     43 C4         81.7566   52.5405   35.3261 a3         1 CLA     -0.053300
     44 C4A        78.4258   59.5380   37.2155 ac         1 CLA      0.001800
     45 C4B        76.8556   60.9894   41.0486 cn         1 CLA     -0.020900
     46 C4C        73.1496   58.7506   40.4971 cr         1 CLA     -0.044400
     47 C4D        74.6622   57.6041   36.5930 c6         1 CLA     -0.046000
     48 C5         83.6571   54.2070   34.7195 a2         1 CLA     -0.070400
     49 C6         84.1964   55.5982   35.0271 a2         1 CLA      0.043900
     50 C7         84.1564   55.9263   36.5765 a2         1 CLA     -0.150000
     51 C8         84.3855   57.4654   36.8706 a1         1 CLA      0.064200
     52 C9         85.7793   57.9018   36.3864 a3         1 CLA     -0.259300
     53 C10        84.3030   57.6881   38.4213 a2         1 CLA     -0.071900
     54 C11        82.9525   57.3360   39.1161 a2         1 CLA      0.014500
     55 C12        82.9761   57.3621   40.6887 a2         1 CLA     -0.112100
     56 C13        81.7308   57.0989   41.5256 a1         1 CLA      0.089200
     57 C14        80.6686   58.2171   41.7104 a3         1 CLA     -0.239100
     58 C15        82.2582   56.5408   42.8749 a2         1 CLA     -0.102200
     59 C16        83.3013   57.3949   43.6452 a2         1 CLA      0.023900
     60 C17        83.1432   57.1139   45.1316 a2         1 CLA     -0.105700
     61 C18        84.1922   57.8271   46.0954 a1         1 CLA      0.206800
     62 C19        83.9907   59.3590   46.1333 a3         1 CLA     -0.280100
     63 C20        84.3027   57.1394   47.4898 a3         1 CLA     -0.280100
     64 NC         74.3477   59.4098   40.4196 nx         1 CLA     -0.309200
     65 MG         75.6229   59.3729   38.6976 mg         1 CLA      0.895000
     66 HMD3       71.3034   55.5322   36.3343 dc         1 CLA      0.064300
     67 HMD2       70.9710   56.0040   38.1663 dc         1 CLA      0.064300
     68 HMD1       70.4350   57.0065   36.7786 dc         1 CLA      0.064300
     69 HMC3       74.0504   60.6286   44.2511 dc         1 CLA      0.052100
     70 HMC2       72.6918   59.5750   44.6322 dc         1 CLA      0.052100
     71 HMC1       74.3790   58.9641   44.5496 dc         1 CLA      0.052100
     72 HMB3       80.5333   63.0424   40.6903 dc         1 CLA      0.063600
     73 HMB2       80.9562   61.3703   40.8642 dc         1 CLA      0.063600
     74 HMB1       80.5952   62.1465   39.2752 dc         1 CLA      0.063600
     75 HMA3       80.4942   57.8553   37.0558 dc         1 CLA      0.058300
     76 HMA2       81.2080   58.1770   35.5035 dc         1 CLA      0.058300
     77 HMA1       81.3426   59.5689   36.6365 dc         1 CLA      0.058300
     78 HED3       76.8795   52.9155   33.7500 dc         1 CLA      0.079300
     79 HED2       77.8232   53.0956   35.1459 dc         1 CLA      0.079300
     80 HED1       76.2898   52.1499   35.1536 dc         1 CLA      0.079300
     81 HBC3       70.7838   56.2315   41.0398 dc         1 CLA      0.016300
     82 HBC2       72.5033   55.9041   41.3107 dc         1 CLA      0.016300
     83 HBC1       71.2033   55.5348   42.5069 dc         1 CLA      0.016300
     84 HBB2       79.3376   61.9926   44.6082 da         1 CLA      0.183000
     85 HBB1       80.2615   61.3213   43.1462 da         1 CLA      0.183000
     86 HBA2       79.0612   59.1519   31.8984 dc         1 CLA      0.029400
     87 HBA1       80.2145   59.1916   33.2010 dc         1 CLA      0.029400
     88 HAC2       71.8601   57.5877   43.5351 dc         1 CLA      0.029300
     89 HAC1       70.7233   58.1371   42.3537 dc         1 CLA      0.029300
     90 HAA2       77.3071   57.9779   33.2237 dc         1 CLA      0.028700
     91 HAA1       77.6733   59.5881   33.7444 dc         1 CLA      0.028700
     92 H203       85.1109   57.5604   48.0810 dc         1 CLA      0.065600
     93 H202       83.4549   57.2584   48.0718 dc         1 CLA      0.065600
     94 H201       84.2970   56.0928   47.3578 dc         1 CLA      0.065600
     95 H193       84.7807   59.8941   46.4965 dc         1 CLA      0.065600
     96 H192       83.8919   59.7546   45.1200 dc         1 CLA      0.065600
     97 H191       83.1550   59.6199   46.6654 dc         1 CLA      0.065600
     98 H172       82.1360   57.3942   45.5826 dc         1 CLA      0.027600
     99 H171       83.2181   56.0405   45.2910 dc         1 CLA      0.027600
    100 H162       84.2831   57.0912   43.2360 dc         1 CLA      0.002900
    101 H161       83.0507   58.3795   43.3652 dc         1 CLA      0.002900
    102 H152       81.4249   56.4653   43.5925 dc         1 CLA      0.029100
    103 H151       82.5185   55.4841   42.7445 dc         1 CLA      0.029100
    104 H143       80.1487   58.5155   40.7583 dc         1 CLA      0.063600
    105 H142       79.9044   57.7615   42.3518 dc         1 CLA      0.063600
    106 H141       81.1261   59.1190   42.0931 dc         1 CLA      0.063600
    107 H122       83.8439   56.7195   40.9295 dc         1 CLA      0.032500
    108 H121       83.2480   58.3947   40.9018 dc         1 CLA      0.032500
    109 H112       82.2891   58.0567   38.7529 dc         1 CLA      0.006600
    110 H111       82.8823   56.2325   38.7894 dc         1 CLA      0.006600
    111 H102       85.0741   57.1085   38.9127 dc         1 CLA      0.024100
    112 H101       84.5094   58.6787   38.8214 dc         1 CLA      0.024100
    113 HHD        71.5222   57.7759   39.5941 da         1 CLA      0.174300
    114 HHC        75.8516   61.0642   42.8961 da         1 CLA      0.136800
    115 HHB        79.9092   60.8109   37.9763 da         1 CLA      0.138300
    116 HBD        75.3640   57.2044   33.8989 dc         1 CLA      0.107700
    117 HAB        77.4299   62.5649   43.5340 da         1 CLA      0.155200
    118 H93        86.4619   57.0526   36.6795 dc         1 CLA      0.069500
    119 H92        86.0120   58.1577   35.3577 dc         1 CLA      0.069500
    120 H91        86.0856   58.8121   36.8905 dc         1 CLA      0.069500
    121 H8         83.6315   58.1293   36.3446 dc         1 CLA      0.029300
    122 H72        83.1271   55.6401   36.7965 dc         1 CLA      0.044400
    123 H71        84.8755   55.3087   37.2274 dc         1 CLA      0.044400
    124 H62        85.2278   55.6017   34.6200 dc         1 CLA      0.015600
    125 H61        83.4828   56.1685   34.4451 dc         1 CLA      0.015600
    126 H52        84.1715   53.4675   35.3338 dc         1 CLA      0.033200
    127 H51        83.8773   53.9776   33.6778 dc         1 CLA      0.033200
    128 H43        82.1814   51.7513   34.6501 dc         1 CLA      0.037000
    129 H42        81.9358   52.2956   36.3797 dc         1 CLA      0.037000
    130 H41        80.6766   52.5048   35.1947 dc         1 CLA      0.037000
    131 H3A        79.3657   60.0412   35.3208 dc         1 CLA      0.041100
    132 H2A        78.7791   57.1680   35.3894 dc         1 CLA      0.083100
    133 H2         80.9862   55.4455   35.5832 da         1 CLA      0.180900
    134 H18        85.2165   57.5622   45.7104 dc         1 CLA     -0.003900
    135 H13        81.2768   56.2597   41.1311 dc         1 CLA      0.019700
    136 H12        79.8083   54.6440   33.2193 dc         1 CLA      0.120400
    137 H11        81.4223   55.0833   32.5420 dc         1 CLA      0.120400
    138 C1         67.6193   60.8531   49.7349 Z1         2 LUT      0.509236
    139 C2         66.2951   60.7167   50.6124 Z2         2 LUT     -0.434695
    140 C3         65.5093   62.0748   50.9574 Z3         2 LUT      0.437453
    141 O3         64.9929   62.2006   52.3235 S1         2 LUT     -0.547129
    142 C4         66.1802   63.2950   50.3843 Z4         2 LUT     -0.468603
    143 C5         66.7074   63.0134   48.9637 Z5         2 LUT      0.279246
    144 C6         67.4653   61.9352   48.6968 Z6         2 LUT     -0.305473
    145 C7         67.8430   61.5266   47.3496 Z7         2 LUT      0.069402
    146 C8         68.7100   62.2797   46.6174 Z8         2 LUT     -0.191631
    147 C9         69.3694   61.8987   45.4405 Z9         2 LUT      0.196698
    148 C10        70.4833   62.6852   44.9981 Y1         2 LUT     -0.208611
    149 C11        71.3608   62.5472   43.8309 Y2         2 LUT      0.030784
    150 C12        72.4405   63.3535   43.5837 Y3         2 LUT     -0.220316
    151 C13        73.3378   63.2177   42.4625 Y4         2 LUT      0.215937
    152 C14        74.4715   64.0193   42.5430 Y5         2 LUT     -0.185793
    153 C15        75.5136   63.9736   41.4837 Y6         2 LUT     -0.057835
    154 C16        67.8010   59.4239   49.2430 Y7         2 LUT     -0.405615
    155 C17        68.6365   61.0796   50.8641 Y7         2 LUT     -0.405615
    156 C18        65.8928   63.7720   47.9013 Y9         2 LUT     -0.369639
    157 C19        68.9062   60.7875   44.5342 W1         2 LUT     -0.333362
    158 C20        72.6443   62.9766   41.1721 W2         2 LUT     -0.323439
    159 C21        87.0628   65.5920   35.3686 Z1         2 LUT      0.406104
    160 C22        87.8895   65.5134   34.0460 Z2         2 LUT     -0.404965
    161 C23        88.0167   66.7680   33.1904 Z3         2 LUT      0.391255
    162 O23        88.7262   66.3229   32.0121 S1         2 LUT     -0.528210
    163 C24        86.5959   67.3037   32.9599 W6         2 LUT     -0.258361
    164 C25        85.4866   67.0079   33.7166 Z5         2 LUT      0.133546
    165 C26        85.6286   66.0291   34.8954 W8         2 LUT     -0.147008
    166 C27        84.8526   66.6138   35.9728 Z7         2 LUT      0.023843
    167 C28        83.8174   66.1341   36.6374 Z8         2 LUT     -0.216987
    168 C29        82.8964   66.7981   37.5928 Z9         2 LUT      0.206524
    169 C30        81.8742   65.9792   38.1088 Y1         2 LUT     -0.215556
    170 C31        80.9601   66.1859   39.2694 Y2         2 LUT      0.025142
    171 C32        79.8165   65.4588   39.5294 Y3         2 LUT     -0.212209
    172 C33        78.8121   65.6235   40.5910 Y4         2 LUT      0.240937
    173 C34        77.6362   64.9458   40.5530 Y5         2 LUT     -0.218862
    174 C35        76.5919   64.7872   41.5367 Y6         2 LUT     -0.023547
    175 C36        87.7246   66.6755   36.2295 Y7         2 LUT     -0.393485
    176 C37        87.2313   64.1763   36.0613 Y7         2 LUT     -0.393485
    177 C38        84.0776   67.4278   33.2209 Y9         2 LUT     -0.387526
    178 C39        83.3093   68.1712   38.1869 W1         2 LUT     -0.322618
    179 C40        79.2640   66.2296   41.8620 W2         2 LUT     -0.358472
    180 H403       80.3070   66.1032   41.9486 R7         2 LUT      0.097720
    181 H402       79.0969   67.2798   41.9477 R7         2 LUT      0.097720
    182 H401       78.8566   65.7179   42.7454 R7         2 LUT      0.097720
    183 H393       84.3410   68.2468   38.3748 R4         2 LUT      0.082505
    184 H392       83.1755   69.0340   37.5253 R4         2 LUT      0.082505
    185 H391       82.7705   68.4167   39.1360 R4         2 LUT      0.082505
    186 H383       84.0312   67.4380   32.1166 R1         2 LUT      0.104030
    187 H382       83.2530   66.8018   33.6640 R1         2 LUT      0.104030
    188 H381       83.8946   68.4746   33.5277 R1         2 LUT      0.104030
    189 H373       86.5518   64.2054   36.9312 T4         2 LUT      0.089537
    190 H372       86.8696   63.3113   35.4780 T4         2 LUT      0.089537
    191 H371       88.2439   63.7690   36.2440 T4         2 LUT      0.089537
    192 H363       88.6516   66.3504   36.5784 T4         2 LUT      0.089537
    193 H362       87.7111   67.7345   35.8973 T4         2 LUT      0.089537
    194 H361       87.1723   66.8113   37.1975 T4         2 LUT      0.089537
    195 H222       88.9176   65.3319   34.3906 U2         2 LUT      0.127376
    196 H221       87.4579   64.7761   33.3708 U2         2 LUT      0.127376
    197 H203       73.2076   63.3672   40.2965 R7         2 LUT      0.087068
    198 H202       72.5324   61.9093   40.9612 R7         2 LUT      0.087068
    199 H201       71.6310   63.4655   41.1204 R7         2 LUT      0.087068
    200 H193       68.9700   61.0055   43.4265 R4         2 LUT      0.089716
    201 H192       69.4053   59.8516   44.7591 R4         2 LUT      0.089716
    202 H191       67.8484   60.7395   44.6304 R4         2 LUT      0.089716
    203 H183       65.7214   63.3174   46.9658 R1         2 LUT      0.094572
    204 H182       64.9210   64.0914   48.2406 R1         2 LUT      0.094572
    205 H181       66.4393   64.7638   47.6988 R1         2 LUT      0.094572
    206 H173       69.7432   60.9735   50.7431 T4         2 LUT      0.093752
    207 H172       68.5736   62.0396   51.2887 T4         2 LUT      0.093752
    208 H171       68.5161   60.3087   51.6559 T4         2 LUT      0.093752
    209 H163       68.6543   59.3509   48.5114 T4         2 LUT      0.093752
    210 H162       68.0933   58.7067   50.0358 T4         2 LUT      0.093752
    211 H161       67.0191   58.9674   48.5675 T4         2 LUT      0.093752
    212 HO3        65.7434   62.2800   52.9404 Q1         2 LUT      0.300121
    213 H8         69.0528   63.2561   47.0659 U7         2 LUT      0.080784
    214 H7         67.5179   60.6028   46.9502 U6         2 LUT      0.042190
    215 H42        65.3121   64.0373   50.3425 U5         2 LUT      0.145166
    216 H41        66.9416   63.6606   51.0586 U5         2 LUT      0.145166
    217 H35        76.5547   65.5320   42.4198 T3         2 LUT      0.077919
    218 H34        77.6427   64.2697   39.6215 T2         2 LUT      0.073626
    219 H32        79.6027   64.6840   38.7611 T1         2 LUT      0.092510
    220 H31        81.1259   67.0478   39.9020 U9         2 LUT      0.070048
    221 H30        81.6458   65.0233   37.5858 U8         2 LUT      0.085442
    222 H3         64.5459   61.9061   50.4815 U3         2 LUT     -0.031596
    223 H28        83.6187   65.1742   36.2290 U7         2 LUT      0.084728
    224 H27        85.1502   67.6611   36.2138 U6         2 LUT      0.087291
    225 H26        85.2329   65.0672   34.4787 Q6         2 LUT      0.075325
    226 H24        86.4152   67.7934   31.9996 Q5         2 LUT      0.094482
    227 H23        88.5069   67.4964   33.8072 U3         2 LUT     -0.024869
    228 H22        65.6191   60.1735   49.9611 U2         2 LUT      0.127376
    229 H21        66.3913   60.1610   51.5176 U2         2 LUT      0.127376
    230 H15        75.3491   63.2581   40.6445 T3         2 LUT      0.093200
    231 H14        74.5241   64.5294   43.4481 T2         2 LUT      0.068865
    232 H12        72.5573   64.1180   44.3450 T1         2 LUT      0.095507
    233 H11        71.1158   61.7630   43.1803 U9         2 LUT      0.068930
    234 H10        70.7547   63.4062   45.7451 U8         2 LUT      0.083911
    235 H1         88.1990   65.8991   31.2979 Q1         2 LUT      0.297311
@<TRIPOS>BOND
    1     6     1 1
    2     7     2 1
    3     8     3 1
    4     9     4 1
    5    11     4 1
    6    12     6 1
    7    13     9 1
    8    16     9 1
    9    25     5 1
   10    25    16 1
   11    26    10 1
   12    26    17 1
   13    27    18 1
   14    28    14 1
   15    28    19 1
   16    29    12 1
   17    30    13 1
   18    31    24 1
   19    32     1 1
   20    32    25 1
   21    33    21 1
   22    33    26 1
   23    34    22 1
   24    34    27 1
   25    35    23 1
   26    35    28 1
   27    36    12 1
   28    36    24 1
   29    37    13 1
   30    37    15 1
   31    38    31 1
   32    39    20 1
   33    39    32 1
   34    40     2 1
   35    40    33 1
   36    41     3 1
   37    41    34 1
   38    42     4 1
   39    42    35 1
   40    43    38 1
   41    44     5 1
   42    44    17 1
   43    44    39 1
   44    45    10 1
   45    45    18 1
   46    45    40 1
   47    46    19 1
   48    46    41 1
   49    47    14 1
   50    47    16 1
   51    47    42 1
   52    48    38 1
   53    49    48 1
   54    50    49 1
   55    51    50 1
   56    52    51 1
   57    53    51 1
   58    54    53 1
   59    55    54 1
   60    56    55 1
   61    57    56 1
   62    58    56 1
   63    59    58 1
   64    60    59 1
   65    61    60 1
   66    62    61 1
   67    63    61 1
   68    64    27 1
   69    64    46 1
   70    65     5 1
   71    65    10 1
   72    65    64 1
   73    65    14 1
   74    66    23 1
   75    67    23 1
   76    68    23 1
   77    69    22 1
   78    70    22 1
   79    71    22 1
   80    72    21 1
   81    73    21 1
   82    74    21 1
   83    75    20 1
   84    76    20 1
   85    77    20 1
   86    78    15 1
   87    79    15 1
   88    80    15 1
   89    81     8 1
   90    82     8 1
   91    83     8 1
   92    84     7 1
   93    85     7 1
   94    86     6 1
   95    87     6 1
   96    88     3 1
   97    89     3 1
   98    90     1 1
   99    91     1 1
  100    92    63 1
  101    93    63 1
  102    94    63 1
  103    95    62 1
  104    96    62 1
  105    97    62 1
  106    98    60 1
  107    99    60 1
  108   100    59 1
  109   101    59 1
  110   102    58 1
  111   103    58 1
  112   104    57 1
  113   105    57 1
  114   106    57 1
  115   107    55 1
  116   108    55 1
  117   109    54 1
  118   110    54 1
  119   111    53 1
  120   112    53 1
  121   113    19 1
  122   114    18 1
  123   115    17 1
  124   116     9 1
  125   117     2 1
  126   118    52 1
  127   119    52 1
  128   120    52 1
  129   121    51 1
  130   122    50 1
  131   123    50 1
  132   124    49 1
  133   125    49 1
  134   126    48 1
  135   127    48 1
  136   128    43 1
  137   129    43 1
  138   130    43 1
  139   131    39 1
  140   132    32 1
  141   133    31 1
  142   134    61 1
  143   135    56 1
  144   136    24 1
  145   137    24 1
  146   139   138 1
  147   140   139 1
  148   141   140 1
  149   142   140 1
  150   143   142 1
  151   144   138 1
  152   144   143 1
  153   145   144 1
  154   146   145 1
  155   147   146 1
  156   148   147 1
  157   149   148 1
  158   150   149 1
  159   151   150 1
  160   152   151 1
  161   153   152 1
  162   154   138 1
  163   155   138 1
  164   156   143 1
  165   157   147 1
  166   158   151 1
  167   160   159 1
  168   161   160 1
  169   162   161 1
  170   163   161 1
  171   164   163 1
  172   165   159 1
  173   165   164 1
  174   166   165 1
  175   167   166 1
  176   168   167 1
  177   169   168 1
  178   170   169 1
  179   171   170 1
  180   172   171 1
  181   173   172 1
  182   174   153 1
  183   174   173 1
  184   175   159 1
  185   176   159 1
  186   177   164 1
  187   178   168 1
  188   179   172 1
  189   180   179 1
  190   181   179 1
  191   182   179 1
  192   183   178 1
  193   184   178 1
  194   185   178 1
  195   186   177 1
  196   187   177 1
  197   188   177 1
  198   189   176 1
  199   190   176 1
  200   191   176 1
  201   192   175 1
  202   193   175 1
  203   194   175 1
  204   195   160 1
  205   196   160 1
  206   197   158 1
  207   198   158 1
  208   199   158 1
  209   200   157 1
  210   201   157 1
  211   202   157 1
  212   203   156 1
  213   204   156 1
  214   205   156 1
  215   206   155 1
  216   207   155 1
  217   208   155 1
  218   209   154 1
  219   210   154 1
  220   211   154 1
  221   212   141 1
  222   213   146 1
  223   214   145 1
  224   215   142 1
  225   216   142 1
  226   217   174 1
  227   218   173 1
  228   219   171 1
  229   220   170 1
  230   221   169 1
  231   222   140 1
  232   223   167 1
  233   224   166 1
  234   225   165 1
  235   226   163 1
  236   227   161 1
  237   228   139 1
  238   229   139 1
  239   230   153 1
  240   231   152 1
  241   232   150 1
  242   233   149 1
  243   234   148 1
  244   235   162 1
  245   65    153 1
  246   65    174 1
@<TRIPOS>SUBSTRUCTURE
      1 CLA               1 ****               0 ****  **** 
      2 LUT             138 ****               0 ****  **** 
