@<TRIPOS>MOLECULE
Cpptraj generated mol2 file.
  235   246     2     0     0
SMALL
USER_CHARGES


@<TRIPOS>ATOM
      1 CAA        77.3855   57.4562   33.4520 a2         1 CLA     -0.055900
      2 CAB        78.3849   61.7015   42.2164 c8         1 CLA     -0.148500
      3 CAC        71.2000   58.0541   42.3965 a2         1 CLA     -0.012600
      4 CAD        73.0964   55.3068   35.1775 ck         1 CLA      0.398800
      5 NA         76.5234   58.1946   36.9017 ns         1 CLA     -0.225500
      6 CBA        78.5790   56.9871   32.6937 a2         1 CLA     -0.135000
      7 CBB        79.5630   61.5689   42.8424 c0         1 CLA     -0.395200
      8 CBC        71.3239   56.5605   42.6717 a3         1 CLA     -0.037700
      9 CBD        74.4810   55.8268   34.5953 a1         1 CLA     -0.053900
     10 NB         76.7986   59.8867   39.3035 nm         1 CLA     -0.295700
     11 OBD        72.3749   54.5637   34.5789 o2         1 CLA     -0.494600
     12 CGA        78.6310   55.5992   32.3102 c4         1 CLA      0.827000
     13 CGD        75.2880   54.6053   34.2837 c4         1 CLA      0.655300
     14 ND         73.7750   57.5165   37.7657 nm         1 CLA     -0.291600
     15 CED        75.8253   52.3901   35.0835 a3         1 CLA      0.005400
     16 CHA        74.9847   56.7927   35.6972 cs         1 CLA     -0.123800
     17 CHB        78.5719   59.2440   37.7564 aa         1 CLA     -0.291900
     18 CHC        75.6682   60.1955   41.4933 aa         1 CLA     -0.090400
     19 CHD        72.0082   57.6595   39.3961 aa         1 CLA     -0.052000
     20 CMA        79.8562   56.8763   36.3136 a3         1 CLA     -0.230700
     21 CMB        80.3013   61.1325   39.5969 a3         1 CLA     -0.180800
     22 CMC        73.3619   59.9662   43.7557 a3         1 CLA     -0.134000
     23 CMD        70.4352   55.6668   37.3529 a3         1 CLA     -0.141100
     24 C1         79.2531   53.4802   33.2361 a2         1 CLA      0.023000
     25 C1A        76.2302   57.4028   35.8257 ac         1 CLA     -0.015100
     26 C1B        78.1011   59.9013   38.9373 cr         1 CLA      0.054700
     27 C1C        74.4369   59.5567   41.2691 cn         1 CLA     -0.005600
     28 C1D        72.4680   57.1867   38.1611 ap         1 CLA     -0.047300
     29 O1A        78.2576   55.0832   31.2558 o2         1 CLA     -0.610800
     30 O1D        75.7632   54.3412   33.1863 o2         1 CLA     -0.558200
     31 C2         79.7574   53.0884   34.5841 c8         1 CLA     -0.325100
     32 C2A        77.5072   57.0323   35.0290 a1         1 CLA      0.098600
     33 C2B        78.8199   60.7651   39.8317 cb         1 CLA      0.088500
     34 C2C        73.4117   59.3451   42.3461 cb         1 CLA      0.053700
     35 C2D        71.7760   56.2844   37.2488 cb         1 CLA      0.058900
     36 O2A        79.1468   54.9656   33.3792 o1         1 CLA     -0.437200
     37 O2D        75.4215   53.7456   35.3705 o1         1 CLA     -0.357600
     38 C3         80.5134   51.9966   34.8480 c5         1 CLA      0.031200
     39 C3A        78.6396   57.7525   35.7514 a1         1 CLA      0.166800
     40 C3B        78.0616   61.0110   40.9302 cb         1 CLA      0.035000
     41 C3C        72.4064   58.5578   41.6802 cb         1 CLA     -0.089900
     42 C3D        72.7628   56.0147   36.3582 cb         1 CLA     -0.035900
     43 C4         79.9169   50.7966   35.5507 a3         1 CLA     -0.053300
     44 C4A        77.8642   58.3950   36.9496 ac         1 CLA      0.001800
     45 C4B        76.7550   60.4062   40.5870 cn         1 CLA     -0.020900
     46 C4C        72.7886   58.3530   40.3509 cr         1 CLA     -0.044400
     47 C4D        73.9050   56.8751   36.6070 c6         1 CLA     -0.046000
     48 C5         82.0195   52.1660   34.6628 a2         1 CLA     -0.070400
     49 C6         82.7382   53.5025   35.0194 a2         1 CLA      0.043900
     50 C7         82.6284   53.9416   36.4976 a2         1 CLA     -0.150000
     51 C8         83.6330   55.0452   36.9733 a1         1 CLA      0.064200
     52 C9         85.0486   54.7177   36.6183 a3         1 CLA     -0.259300
     53 C10        83.5009   55.3351   38.4735 a2         1 CLA     -0.071900
     54 C11        82.0519   55.6547   39.0360 a2         1 CLA      0.014500
     55 C12        82.0740   56.0685   40.5719 a2         1 CLA     -0.112100
     56 C13        80.7312   56.1766   41.2126 a1         1 CLA      0.089200
     57 C14        79.9354   57.3970   40.6825 a3         1 CLA     -0.239100
     58 C15        80.8914   56.0519   42.7870 a2         1 CLA     -0.102200
     59 C16        81.3204   57.2595   43.6840 a2         1 CLA      0.023900
     60 C17        82.8533   57.6672   43.6185 a2         1 CLA     -0.105700
     61 C18        83.4118   58.9437   44.4399 a1         1 CLA      0.206800
     62 C19        82.8575   60.3260   43.9998 a3         1 CLA     -0.280100
     63 C20        83.1191   58.7975   45.9126 a3         1 CLA     -0.280100
     64 NC         74.0323   58.9457   40.1374 nx         1 CLA     -0.309200
     65 MG         75.2239   58.8094   38.4284 mg         1 CLA      0.895000
     66 HMD3       70.3408   55.0010   36.5827 dc         1 CLA      0.064300
     67 HMD2       70.3320   55.0605   38.2130 dc         1 CLA      0.064300
     68 HMD1       69.6674   56.4565   37.5195 dc         1 CLA      0.064300
     69 HMC3       72.4686   60.5864   43.7776 dc         1 CLA      0.052100
     70 HMC2       73.2822   59.1327   44.5474 dc         1 CLA      0.052100
     71 HMC1       74.1839   60.5906   44.0520 dc         1 CLA      0.052100
     72 HMB3       80.9214   60.2167   39.6728 dc         1 CLA      0.063600
     73 HMB2       80.3425   61.5019   38.5512 dc         1 CLA      0.063600
     74 HMB1       80.6933   62.0073   40.1424 dc         1 CLA      0.063600
     75 HMA3       79.3704   56.0490   36.8263 dc         1 CLA      0.058300
     76 HMA2       80.6007   56.6995   35.4668 dc         1 CLA      0.058300
     77 HMA1       80.3924   57.4318   37.1316 dc         1 CLA      0.058300
     78 HED3       76.0945   52.1414   33.9994 dc         1 CLA      0.079300
     79 HED2       76.7603   52.1459   35.6111 dc         1 CLA      0.079300
     80 HED1       75.0753   51.6292   35.3080 dc         1 CLA      0.079300
     81 HBC3       70.7630   55.9937   41.9304 dc         1 CLA      0.016300
     82 HBC2       72.3584   56.3979   42.7706 dc         1 CLA      0.016300
     83 HBC1       70.8947   56.4266   43.6538 dc         1 CLA      0.016300
     84 HBB2       79.5670   62.0751   43.8370 da         1 CLA      0.183000
     85 HBB1       80.4933   60.9719   42.5658 da         1 CLA      0.183000
     86 HBA2       78.7236   57.5149   31.7065 dc         1 CLA      0.029400
     87 HBA1       79.3235   57.3602   33.3776 dc         1 CLA      0.029400
     88 HAC2       71.2238   58.5216   43.3796 dc         1 CLA      0.029300
     89 HAC1       70.1872   58.2584   41.8920 dc         1 CLA      0.029300
     90 HAA2       76.5787   57.0242   32.9598 dc         1 CLA      0.028700
     91 HAA1       77.2870   58.5721   33.4642 dc         1 CLA      0.028700
     92 H203       83.7473   58.0045   46.3750 dc         1 CLA      0.065600
     93 H202       83.3688   59.6792   46.4902 dc         1 CLA      0.065600
     94 H201       82.0486   58.6500   46.1103 dc         1 CLA      0.065600
     95 H193       81.9194   60.4420   44.5477 dc         1 CLA      0.065600
     96 H192       83.5052   61.1304   44.3340 dc         1 CLA      0.065600
     97 H191       82.6824   60.2777   42.9480 dc         1 CLA      0.065600
     98 H172       83.3305   56.7804   43.9030 dc         1 CLA      0.027600
     99 H171       83.2600   57.8793   42.6069 dc         1 CLA      0.027600
    100 H162       80.7965   58.1812   43.4244 dc         1 CLA      0.002900
    101 H161       81.0822   56.9635   44.6595 dc         1 CLA      0.002900
    102 H152       79.8837   55.8414   43.0654 dc         1 CLA      0.029100
    103 H151       81.5480   55.2512   43.0072 dc         1 CLA      0.029100
    104 H143       80.3721   58.2441   41.2106 dc         1 CLA      0.063600
    105 H142       80.0020   57.5463   39.6275 dc         1 CLA      0.063600
    106 H141       78.9110   57.4130   40.9589 dc         1 CLA      0.063600
    107 H122       82.6272   55.2909   40.9957 dc         1 CLA      0.032500
    108 H121       82.7068   56.9576   40.5759 dc         1 CLA      0.032500
    109 H112       81.6158   56.4451   38.4639 dc         1 CLA      0.006600
    110 H111       81.3664   54.8432   38.9426 dc         1 CLA      0.006600
    111 H102       83.8911   54.4442   39.0226 dc         1 CLA      0.024100
    112 H101       84.1735   56.2561   38.6830 dc         1 CLA      0.024100
    113 HHD        71.0333   57.2892   39.7072 da         1 CLA      0.174300
    114 HHC        75.8624   60.6558   42.4650 da         1 CLA      0.136800
    115 HHB        79.5294   59.4386   37.3968 da         1 CLA      0.138300
    116 HBD        74.2172   56.4083   33.7407 dc         1 CLA      0.107700
    117 HAB        77.6643   62.2018   42.7918 da         1 CLA      0.155200
    118 H93        85.7892   55.3935   37.0615 dc         1 CLA      0.069500
    119 H92        85.2139   53.7061   37.0929 dc         1 CLA      0.069500
    120 H91        85.4332   54.6776   35.5435 dc         1 CLA      0.069500
    121 H8         83.3104   55.9410   36.4548 dc         1 CLA      0.029300
    122 H72        81.6054   54.2167   36.5700 dc         1 CLA      0.044400
    123 H71        82.7708   53.0515   37.1167 dc         1 CLA      0.044400
    124 H62        83.7916   53.3858   34.7433 dc         1 CLA      0.015600
    125 H61        82.2895   54.2802   34.3438 dc         1 CLA      0.015600
    126 H52        82.6166   51.4651   35.2466 dc         1 CLA      0.033200
    127 H51        82.2805   51.8516   33.6587 dc         1 CLA      0.033200
    128 H43        80.2344   50.7779   36.5647 dc         1 CLA      0.037000
    129 H42        78.8736   50.8394   35.6223 dc         1 CLA      0.037000
    130 H41        80.2168   49.8684   35.0746 dc         1 CLA      0.037000
    131 H3A        78.9842   58.6237   35.1231 dc         1 CLA      0.041100
    132 H2A        77.6048   55.9559   35.1163 dc         1 CLA      0.083100
    133 H2         79.6184   53.6996   35.4813 da         1 CLA      0.180900
    134 H18        84.4797   58.9689   44.3257 dc         1 CLA     -0.003900
    135 H13        80.1446   55.3963   40.8249 dc         1 CLA      0.019700
    136 H12        78.2474   52.9646   33.0716 dc         1 CLA      0.120400
    137 H11        80.0608   53.1553   32.5510 dc         1 CLA      0.120400
    138 C1         67.1774   61.4490   50.0329 Z1         2 LUT      0.509236
    139 C2         67.3202   62.6896   50.9417 Z2         2 LUT     -0.434695
    140 C3         66.0577   63.5032   50.9700 Z3         2 LUT      0.437453
    141 O3         66.2881   64.8335   51.4865 S1         2 LUT     -0.547129
    142 C4         65.4835   63.6668   49.6355 Z4         2 LUT     -0.468603
    143 C5         66.0019   62.9431   48.4625 Z5         2 LUT      0.279246
    144 C6         66.7179   61.8078   48.6225 Z6         2 LUT     -0.305473
    145 C7         67.4415   61.2378   47.4598 Z7         2 LUT      0.069402
    146 C8         68.2125   62.0234   46.6218 Z8         2 LUT     -0.191631
    147 C9         68.8720   61.6617   45.3286 Z9         2 LUT      0.196698
    148 C10        69.7289   62.6014   44.8401 Y1         2 LUT     -0.208611
    149 C11        70.4348   62.4428   43.5608 Y2         2 LUT      0.030784
    150 C12        71.4485   63.3150   43.1925 Y3         2 LUT     -0.220316
    151 C13        72.2895   63.1083   42.0647 Y4         2 LUT      0.215937
    152 C14        73.6643   63.5571   42.0474 Y5         2 LUT     -0.185793
    153 C15        74.7385   63.4245   41.1225 Y6         2 LUT     -0.057835
    154 C16        66.0269   60.5991   50.7081 Y7         2 LUT     -0.405615
    155 C17        68.4371   60.5317   50.1923 Y7         2 LUT     -0.405615
    156 C18        65.7340   63.6761   47.1229 Y9         2 LUT     -0.369639
    157 C19        68.5228   60.3598   44.6751 W1         2 LUT     -0.333362
    158 C20        71.6973   62.3278   40.9737 W2         2 LUT     -0.323439
    159 C21        86.0899   64.1560   35.0572 Z1         2 LUT      0.406104
    160 C22        87.0673   63.6955   33.8246 Z2         2 LUT     -0.404965
    161 C23        87.3185   64.7702   32.7824 Z3         2 LUT      0.391255
    162 O23        88.1382   64.2108   31.7807 S1         2 LUT     -0.528210
    163 C24        86.0721   65.5581   32.3846 W6         2 LUT     -0.258361
    164 C25        84.9692   65.6240   33.1267 Z5         2 LUT      0.133546
    165 C26        84.8128   64.8530   34.4689 W8         2 LUT     -0.147008
    166 C27        84.0752   65.6130   35.5696 Z7         2 LUT      0.023843
    167 C28        83.0619   64.9049   36.2082 Z8         2 LUT     -0.216987
    168 C29        82.3151   65.4846   37.3361 Z9         2 LUT      0.206524
    169 C30        81.2218   64.8266   37.8467 Y1         2 LUT     -0.215556
    170 C31        80.3864   64.9907   39.0308 Y2         2 LUT      0.025142
    171 C32        79.1995   64.3424   39.2138 Y3         2 LUT     -0.212209
    172 C33        78.2160   64.5753   40.2743 Y4         2 LUT      0.240937
    173 C34        76.9680   63.9508   40.2015 Y5         2 LUT     -0.218862
    174 C35        75.8786   64.1308   41.1926 Y6         2 LUT     -0.023547
    175 C36        87.0799   64.9974   35.9110 Y7         2 LUT     -0.393485
    176 C37        85.7908   62.8644   35.8583 Y7         2 LUT     -0.393485
    177 C38        83.8301   66.6013   32.5485 Y9         2 LUT     -0.387526
    178 C39        82.7500   66.7873   37.9451 W1         2 LUT     -0.322618
    179 C40        78.7704   64.9465   41.5701 W2         2 LUT     -0.358472
    180 H403       78.6957   66.0216   41.6800 R7         2 LUT      0.097720
    181 H402       78.2770   64.4788   42.4529 R7         2 LUT      0.097720
    182 H401       79.7777   64.6582   41.7413 R7         2 LUT      0.097720
    183 H393       83.4968   66.6293   38.6874 R4         2 LUT      0.082505
    184 H392       83.1764   67.5585   37.2702 R4         2 LUT      0.082505
    185 H391       82.0941   67.2581   38.7338 R4         2 LUT      0.082505
    186 H383       82.9321   66.0692   32.5552 R1         2 LUT      0.104030
    187 H382       83.7073   67.4810   33.1730 R1         2 LUT      0.104030
    188 H381       84.0598   66.9139   31.4556 R1         2 LUT      0.104030
    189 H373       85.5699   62.0927   35.1333 T4         2 LUT      0.089537
    190 H372       86.7036   62.4916   36.4164 T4         2 LUT      0.089537
    191 H371       84.9748   62.9266   36.5501 T4         2 LUT      0.089537
    192 H363       87.4329   65.7659   35.3009 T4         2 LUT      0.089537
    193 H362       86.6039   65.4194   36.7995 T4         2 LUT      0.089537
    194 H361       88.0059   64.4402   36.1963 T4         2 LUT      0.089537
    195 H222       88.0322   63.2946   34.1618 U2         2 LUT      0.127376
    196 H221       86.5696   62.8632   33.2330 U2         2 LUT      0.127376
    197 H203       71.0649   62.9545   40.4178 R7         2 LUT      0.087068
    198 H202       72.4234   61.9392   40.2209 R7         2 LUT      0.087068
    199 H201       71.2419   61.3927   41.2329 R7         2 LUT      0.087068
    200 H193       67.6159   59.9839   45.0476 R4         2 LUT      0.089716
    201 H192       68.5463   60.4009   43.5530 R4         2 LUT      0.089716
    202 H191       69.1550   59.5582   44.9522 R4         2 LUT      0.089716
    203 H183       66.4725   64.4566   46.9442 R1         2 LUT      0.094572
    204 H182       65.7282   62.8645   46.3088 R1         2 LUT      0.094572
    205 H181       64.7064   64.0490   47.2288 R1         2 LUT      0.094572
    206 H173       68.5651   60.1844   51.2454 T4         2 LUT      0.093752
    207 H172       68.3270   59.6850   49.4925 T4         2 LUT      0.093752
    208 H171       69.4154   60.9697   49.9625 T4         2 LUT      0.093752
    209 H163       65.9558   59.6085   50.1922 T4         2 LUT      0.093752
    210 H162       66.2042   60.3929   51.7614 T4         2 LUT      0.093752
    211 H161       65.0849   61.1585   50.5544 T4         2 LUT      0.093752
    212 HO3        65.5604   65.2237   51.9877 Q1         2 LUT      0.300121
    213 H8         68.3097   63.0623   46.9146 U7         2 LUT      0.080784
    214 H7         67.3184   60.1911   47.2440 U6         2 LUT      0.042190
    215 H42        64.4158   63.3400   49.6455 U5         2 LUT      0.145166
    216 H41        65.2948   64.7574   49.4261 U5         2 LUT      0.145166
    217 H35        75.9771   64.8571   41.9760 T3         2 LUT      0.077919
    218 H34        76.8136   63.2184   39.3363 T2         2 LUT      0.073626
    219 H32        78.9572   63.6594   38.3612 T1         2 LUT      0.092510
    220 H31        80.6352   65.7638   39.7442 U9         2 LUT      0.070048
    221 H30        80.9000   63.8894   37.3952 U8         2 LUT      0.085442
    222 H3         65.2494   63.0189   51.5814 U3         2 LUT     -0.031596
    223 H28        82.7136   63.9962   35.7577 U7         2 LUT      0.084728
    224 H27        84.3846   66.5719   35.9427 U6         2 LUT      0.087291
    225 H26        84.1903   63.9709   34.0874 Q6         2 LUT      0.075325
    226 H24        86.2026   66.0981   31.4417 Q5         2 LUT      0.094482
    227 H23        88.0134   65.5780   33.1221 U3         2 LUT     -0.024869
    228 H22        67.5927   62.4927   51.9891 U2         2 LUT      0.127376
    229 H21        68.1517   63.2662   50.5025 U2         2 LUT      0.127376
    230 H15        74.6827   62.7592   40.2612 T3         2 LUT      0.093200
    231 H14        73.9428   64.1420   42.8419 T2         2 LUT      0.068865
    232 H12        71.6890   64.1120   43.9117 T1         2 LUT      0.095507
    233 H11        70.2131   61.5232   43.0227 U9         2 LUT      0.068930
    234 H10        69.9459   63.5071   45.3973 U8         2 LUT      0.083911
    235 H1         87.6415   63.9852   30.9875 Q1         2 LUT      0.297311
@<TRIPOS>BOND
    1     6     1 1
    2     7     2 1
    3     8     3 1
    4     9     4 1
    5    11     4 1
    6    12     6 1
    7    13     9 1
    8    16     9 1
    9    25     5 1
   10    25    16 1
   11    26    10 1
   12    26    17 1
   13    27    18 1
   14    28    14 1
   15    28    19 1
   16    29    12 1
   17    30    13 1
   18    31    24 1
   19    32     1 1
   20    32    25 1
   21    33    21 1
   22    33    26 1
   23    34    22 1
   24    34    27 1
   25    35    23 1
   26    35    28 1
   27    36    12 1
   28    36    24 1
   29    37    13 1
   30    37    15 1
   31    38    31 1
   32    39    20 1
   33    39    32 1
   34    40     2 1
   35    40    33 1
   36    41     3 1
   37    41    34 1
   38    42     4 1
   39    42    35 1
   40    43    38 1
   41    44     5 1
   42    44    17 1
   43    44    39 1
   44    45    10 1
   45    45    18 1
   46    45    40 1
   47    46    19 1
   48    46    41 1
   49    47    14 1
   50    47    16 1
   51    47    42 1
   52    48    38 1
   53    49    48 1
   54    50    49 1
   55    51    50 1
   56    52    51 1
   57    53    51 1
   58    54    53 1
   59    55    54 1
   60    56    55 1
   61    57    56 1
   62    58    56 1
   63    59    58 1
   64    60    59 1
   65    61    60 1
   66    62    61 1
   67    63    61 1
   68    64    27 1
   69    64    46 1
   70    65     5 1
   71    65    10 1
   72    65    64 1
   73    65    14 1
   74    66    23 1
   75    67    23 1
   76    68    23 1
   77    69    22 1
   78    70    22 1
   79    71    22 1
   80    72    21 1
   81    73    21 1
   82    74    21 1
   83    75    20 1
   84    76    20 1
   85    77    20 1
   86    78    15 1
   87    79    15 1
   88    80    15 1
   89    81     8 1
   90    82     8 1
   91    83     8 1
   92    84     7 1
   93    85     7 1
   94    86     6 1
   95    87     6 1
   96    88     3 1
   97    89     3 1
   98    90     1 1
   99    91     1 1
  100    92    63 1
  101    93    63 1
  102    94    63 1
  103    95    62 1
  104    96    62 1
  105    97    62 1
  106    98    60 1
  107    99    60 1
  108   100    59 1
  109   101    59 1
  110   102    58 1
  111   103    58 1
  112   104    57 1
  113   105    57 1
  114   106    57 1
  115   107    55 1
  116   108    55 1
  117   109    54 1
  118   110    54 1
  119   111    53 1
  120   112    53 1
  121   113    19 1
  122   114    18 1
  123   115    17 1
  124   116     9 1
  125   117     2 1
  126   118    52 1
  127   119    52 1
  128   120    52 1
  129   121    51 1
  130   122    50 1
  131   123    50 1
  132   124    49 1
  133   125    49 1
  134   126    48 1
  135   127    48 1
  136   128    43 1
  137   129    43 1
  138   130    43 1
  139   131    39 1
  140   132    32 1
  141   133    31 1
  142   134    61 1
  143   135    56 1
  144   136    24 1
  145   137    24 1
  146   139   138 1
  147   140   139 1
  148   141   140 1
  149   142   140 1
  150   143   142 1
  151   144   138 1
  152   144   143 1
  153   145   144 1
  154   146   145 1
  155   147   146 1
  156   148   147 1
  157   149   148 1
  158   150   149 1
  159   151   150 1
  160   152   151 1
  161   153   152 1
  162   154   138 1
  163   155   138 1
  164   156   143 1
  165   157   147 1
  166   158   151 1
  167   160   159 1
  168   161   160 1
  169   162   161 1
  170   163   161 1
  171   164   163 1
  172   165   159 1
  173   165   164 1
  174   166   165 1
  175   167   166 1
  176   168   167 1
  177   169   168 1
  178   170   169 1
  179   171   170 1
  180   172   171 1
  181   173   172 1
  182   174   153 1
  183   174   173 1
  184   175   159 1
  185   176   159 1
  186   177   164 1
  187   178   168 1
  188   179   172 1
  189   180   179 1
  190   181   179 1
  191   182   179 1
  192   183   178 1
  193   184   178 1
  194   185   178 1
  195   186   177 1
  196   187   177 1
  197   188   177 1
  198   189   176 1
  199   190   176 1
  200   191   176 1
  201   192   175 1
  202   193   175 1
  203   194   175 1
  204   195   160 1
  205   196   160 1
  206   197   158 1
  207   198   158 1
  208   199   158 1
  209   200   157 1
  210   201   157 1
  211   202   157 1
  212   203   156 1
  213   204   156 1
  214   205   156 1
  215   206   155 1
  216   207   155 1
  217   208   155 1
  218   209   154 1
  219   210   154 1
  220   211   154 1
  221   212   141 1
  222   213   146 1
  223   214   145 1
  224   215   142 1
  225   216   142 1
  226   217   174 1
  227   218   173 1
  228   219   171 1
  229   220   170 1
  230   221   169 1
  231   222   140 1
  232   223   167 1
  233   224   166 1
  234   225   165 1
  235   226   163 1
  236   227   161 1
  237   228   139 1
  238   229   139 1
  239   230   153 1
  240   231   152 1
  241   232   150 1
  242   233   149 1
  243   234   148 1
  244   235   162 1
  245   65    153 1
  246   65    174 1
@<TRIPOS>SUBSTRUCTURE
      1 CLA               1 ****               0 ****  **** 
      2 LUT             138 ****               0 ****  **** 
