@<TRIPOS>MOLECULE
Cpptraj generated mol2 file.
  235   246     2     0     0
SMALL
USER_CHARGES


@<TRIPOS>ATOM
      1 CAA        78.5644   57.6875   34.5221 a2         1 CLA     -0.055900
      2 CAB        77.9132   61.1585   43.6598 c8         1 CLA     -0.148500
      3 CAC        71.1388   56.7063   42.5981 a2         1 CLA     -0.012600
      4 CAD        74.4993   54.6976   35.4162 ck         1 CLA      0.398800
      5 NA         77.2882   57.9481   37.8460 ns         1 CLA     -0.225500
      6 CBA        79.9119   57.7074   33.6912 a2         1 CLA     -0.135000
      7 CBB        79.1468   61.1012   44.2900 c0         1 CLA     -0.395200
      8 CBC        71.2999   55.2857   42.8780 a3         1 CLA     -0.037700
      9 CBD        75.9613   55.3411   35.1830 a1         1 CLA     -0.053900
     10 NB         76.8925   59.3162   40.4753 nm         1 CLA     -0.295700
     11 OBD        74.0037   53.8158   34.7038 o2         1 CLA     -0.494600
     12 CGA        80.5248   56.3246   33.3509 c4         1 CLA      0.827000
     13 CGD        77.0771   54.3499   35.1163 c4         1 CLA      0.655300
     14 ND         74.5419   56.9247   38.1755 nm         1 CLA     -0.291600
     15 CED        78.3184   52.8320   36.4059 a3         1 CLA      0.005400
     16 CHA        76.1584   56.3577   36.4084 cs         1 CLA     -0.123800
     17 CHB        78.8667   59.3574   39.0319 aa         1 CLA     -0.291900
     18 CHC        75.4240   59.4105   42.4000 aa         1 CLA     -0.090400
     19 CHD        72.6415   56.5772   39.6967 aa         1 CLA     -0.052000
     20 CMA        80.8000   57.1477   37.4733 a3         1 CLA     -0.230700
     21 CMB        80.0839   61.2020   41.2520 a3         1 CLA     -0.180800
     22 CMC        73.1820   58.7316   44.2404 a3         1 CLA     -0.134000
     23 CMD        71.7923   54.4782   37.7034 a3         1 CLA     -0.141100
     24 C1         81.6418   54.4865   34.5627 a2         1 CLA      0.023000
     25 C1A        77.2560   57.1490   36.7490 ac         1 CLA     -0.015100
     26 C1B        78.1712   59.7433   40.1960 cr         1 CLA      0.054700
     27 C1C        74.3136   58.6584   42.0117 cn         1 CLA     -0.005600
     28 C1D        73.3530   56.3024   38.4753 ap         1 CLA     -0.047300
     29 O1A        80.4684   55.6240   32.3414 o2         1 CLA     -0.610800
     30 O1D        78.1002   54.3803   34.4320 o2         1 CLA     -0.558200
     31 C2         82.5558   54.4485   35.7820 c8         1 CLA     -0.325100
     32 C2A        78.6109   57.1861   35.9754 a1         1 CLA      0.098600
     33 C2B        78.7280   60.6250   41.2626 cb         1 CLA      0.088500
     34 C2C        73.1664   58.3486   42.8075 cb         1 CLA      0.053700
     35 C2D        72.9424   55.3200   37.5431 cb         1 CLA      0.058900
     36 O2A        81.2621   55.8973   34.4221 o1         1 CLA     -0.437200
     37 O2D        76.9812   53.4067   36.1267 o1         1 CLA     -0.357600
     38 C3         83.0632   53.3124   36.2843 c5         1 CLA      0.031200
     39 C3A        79.5505   57.9352   36.9426 a1         1 CLA      0.166800
     40 C3B        77.7909   60.5176   42.2831 cb         1 CLA      0.035000
     41 C3C        72.3289   57.4616   42.0595 cb         1 CLA     -0.089900
     42 C3D        73.9859   55.3848   36.5855 cb         1 CLA     -0.035900
     43 C4         82.5365   52.3793   37.3686 a3         1 CLA     -0.053300
     44 C4A        78.5419   58.4398   38.0017 ac         1 CLA      0.001800
     45 C4B        76.5811   59.7791   41.7031 cn         1 CLA     -0.020900
     46 C4C        73.0032   57.4043   40.7499 cr         1 CLA     -0.044400
     47 C4D        74.9412   56.2974   37.0373 c6         1 CLA     -0.046000
     48 C5         84.4079   52.9792   35.7593 a2         1 CLA     -0.070400
     49 C6         85.4994   53.9093   36.2729 a2         1 CLA      0.043900
     50 C7         85.3346   54.3412   37.7604 a2         1 CLA     -0.150000
     51 C8         86.2951   55.4706   38.2726 a1         1 CLA      0.064200
     52 C9         87.7791   55.1588   37.9743 a3         1 CLA     -0.259300
     53 C10        86.1356   55.9547   39.7919 a2         1 CLA     -0.071900
     54 C11        84.7375   56.6034   39.9743 a2         1 CLA      0.014500
     55 C12        84.6052   57.4552   41.2912 a2         1 CLA     -0.112100
     56 C13        85.0215   56.8139   42.6395 a1         1 CLA      0.089200
     57 C14        84.1148   55.5261   42.9436 a3         1 CLA     -0.239100
     58 C15        85.1251   57.8186   43.7892 a2         1 CLA     -0.102200
     59 C16        83.8111   58.6324   44.0203 a2         1 CLA      0.023900
     60 C17        83.7681   59.2533   45.4581 a2         1 CLA     -0.105700
     61 C18        82.4558   60.0673   45.8529 a1         1 CLA      0.206800
     62 C19        81.3256   59.0773   45.9326 a3         1 CLA     -0.280100
     63 C20        82.6305   60.8563   47.2487 a3         1 CLA     -0.280100
     64 NC         74.1870   58.1488   40.7711 nx         1 CLA     -0.309200
     65 MG         75.7207   58.1666   39.2555 mg         1 CLA      0.895000
     66 HMD3       70.8037   54.9932   37.4320 dc         1 CLA      0.064300
     67 HMD2       71.9177   53.5999   37.0053 dc         1 CLA      0.064300
     68 HMD1       71.8280   54.0062   38.7110 dc         1 CLA      0.064300
     69 HMC3       72.2098   58.6018   44.7049 dc         1 CLA      0.052100
     70 HMC2       73.8720   58.0934   44.7808 dc         1 CLA      0.052100
     71 HMC1       73.4824   59.7852   44.4249 dc         1 CLA      0.052100
     72 HMB3       80.3888   61.6494   40.2412 dc         1 CLA      0.063600
     73 HMB2       80.0032   62.0125   41.9299 dc         1 CLA      0.063600
     74 HMB1       80.8081   60.3952   41.4971 dc         1 CLA      0.063600
     75 HMA3       81.1744   57.5619   38.3868 dc         1 CLA      0.058300
     76 HMA2       80.5599   56.1054   37.6867 dc         1 CLA      0.058300
     77 HMA1       81.5292   57.2254   36.7010 dc         1 CLA      0.058300
     78 HED3       78.4966   52.1478   35.5467 dc         1 CLA      0.079300
     79 HED2       79.1110   53.5548   36.4132 dc         1 CLA      0.079300
     80 HED1       78.1279   52.1718   37.2501 dc         1 CLA      0.079300
     81 HBC3       71.7165   54.8153   41.9077 dc         1 CLA      0.016300
     82 HBC2       72.0973   55.1735   43.6417 dc         1 CLA      0.016300
     83 HBC1       70.3647   54.8258   43.3612 dc         1 CLA      0.016300
     84 HBB2       79.1791   61.6254   45.3012 da         1 CLA      0.183000
     85 HBB1       80.0755   60.7480   43.7794 da         1 CLA      0.183000
     86 HBA2       79.7329   58.2043   32.7731 dc         1 CLA      0.029400
     87 HBA1       80.7247   58.1267   34.2708 dc         1 CLA      0.029400
     88 HAC2       70.7632   57.1254   43.5028 dc         1 CLA      0.029300
     89 HAC1       70.3390   56.7030   41.9102 dc         1 CLA      0.029300
     90 HAA2       77.9273   57.0146   33.9451 dc         1 CLA      0.028700
     91 HAA1       78.0684   58.6793   34.5499 dc         1 CLA      0.028700
     92 H203       81.9290   61.7342   47.2204 dc         1 CLA      0.065600
     93 H202       82.3347   60.2374   48.1461 dc         1 CLA      0.065600
     94 H201       83.6053   61.3303   47.3110 dc         1 CLA      0.065600
     95 H193       80.3718   59.4666   46.2475 dc         1 CLA      0.065600
     96 H192       81.2286   58.6103   44.9818 dc         1 CLA      0.065600
     97 H191       81.5544   58.4078   46.7143 dc         1 CLA      0.065600
     98 H172       83.7833   58.5424   46.3009 dc         1 CLA      0.027600
     99 H171       84.6291   59.9269   45.5929 dc         1 CLA      0.027600
    100 H162       83.5478   59.3534   43.2464 dc         1 CLA      0.002900
    101 H161       82.9724   57.9293   43.9805 dc         1 CLA      0.002900
    102 H152       85.2643   57.3568   44.7404 dc         1 CLA      0.029100
    103 H151       85.9064   58.4317   43.4570 dc         1 CLA      0.029100
    104 H143       83.1213   55.8767   42.6508 dc         1 CLA      0.063600
    105 H142       84.3981   54.7148   42.2128 dc         1 CLA      0.063600
    106 H141       84.2764   55.2675   43.9483 dc         1 CLA      0.063600
    107 H122       85.2538   58.2875   41.1750 dc         1 CLA      0.032500
    108 H121       83.5722   57.8148   41.4443 dc         1 CLA      0.032500
    109 H112       84.6429   57.3632   39.1768 dc         1 CLA      0.006600
    110 H111       83.8861   55.9769   39.9755 dc         1 CLA      0.006600
    111 H102       86.0054   55.0655   40.5329 dc         1 CLA      0.024100
    112 H101       86.9126   56.6848   40.0622 dc         1 CLA      0.024100
    113 HHD        71.6017   56.1235   39.6639 da         1 CLA      0.174300
    114 HHC        75.3833   59.6974   43.3791 da         1 CLA      0.136800
    115 HHB        79.8779   59.7693   39.0728 da         1 CLA      0.138300
    116 HBD        75.8859   55.9167   34.3051 dc         1 CLA      0.107700
    117 HAB        77.0103   61.4562   44.1909 da         1 CLA      0.155200
    118 H93        87.9471   55.0050   36.8863 dc         1 CLA      0.069500
    119 H92        88.5299   55.8836   38.4033 dc         1 CLA      0.069500
    120 H91        87.9722   54.2076   38.3825 dc         1 CLA      0.069500
    121 H8         86.1587   56.3107   37.6455 dc         1 CLA      0.029300
    122 H72        84.3420   54.7044   37.9108 dc         1 CLA      0.044400
    123 H71        85.5203   53.5106   38.4418 dc         1 CLA      0.044400
    124 H62        86.5281   53.4805   36.1484 dc         1 CLA      0.015600
    125 H61        85.4413   54.8784   35.6756 dc         1 CLA      0.015600
    126 H52        84.6863   51.9659   36.0726 dc         1 CLA      0.033200
    127 H51        84.3440   53.1107   34.6933 dc         1 CLA      0.033200
    128 H43        82.6788   51.3197   37.1707 dc         1 CLA      0.037000
    129 H42        83.0048   52.6408   38.3315 dc         1 CLA      0.037000
    130 H41        81.4439   52.5609   37.4504 dc         1 CLA      0.037000
    131 H3A        79.9180   58.8045   36.3954 dc         1 CLA      0.041100
    132 H2A        79.0554   56.1380   35.9036 dc         1 CLA      0.083100
    133 H2         82.7523   55.4122   36.2421 da         1 CLA      0.180900
    134 H18        82.2298   60.7753   45.0658 dc         1 CLA     -0.003900
    135 H13        86.0211   56.3311   42.5464 dc         1 CLA      0.019700
    136 H12        80.8202   53.8463   34.8196 dc         1 CLA      0.120400
    137 H11        82.2016   54.0788   33.6505 dc         1 CLA      0.120400
    138 C1         68.0910   60.3079   50.0638 Z1         2 LUT      0.509236
    139 C2         66.6859   60.2807   50.4681 Z2         2 LUT     -0.434695
    140 C3         66.0377   61.5492   50.9732 Z3         2 LUT      0.437453
    141 O3         66.0607   61.6478   52.3865 S1         2 LUT     -0.547129
    142 C4         66.6802   62.7215   50.1959 Z4         2 LUT     -0.468603
    143 C5         67.4410   62.3835   48.9822 Z5         2 LUT      0.279246
    144 C6         68.1319   61.2491   48.8208 Z6         2 LUT     -0.305473
    145 C7         68.5169   60.7592   47.5433 Z7         2 LUT      0.069402
    146 C8         69.2053   61.4159   46.6495 Z8         2 LUT     -0.191631
    147 C9         69.8944   60.9985   45.4011 Z9         2 LUT      0.196698
    148 C10        70.9754   61.7530   44.9430 Y1         2 LUT     -0.208611
    149 C11        71.7714   61.6867   43.7710 Y2         2 LUT      0.030784
    150 C12        72.8335   62.4395   43.4401 Y3         2 LUT     -0.220316
    151 C13        73.6168   62.3056   42.2679 Y4         2 LUT      0.215937
    152 C14        74.7685   62.9563   42.4200 Y5         2 LUT     -0.185793
    153 C15        75.8424   63.0737   41.4974 Y6         2 LUT     -0.057835
    154 C16        68.5456   58.8571   49.9232 Y7         2 LUT     -0.405615
    155 C17        68.9519   60.7601   51.2313 Y7         2 LUT     -0.405615
    156 C18        66.8952   63.2696   47.8496 Y9         2 LUT     -0.369639
    157 C19        69.3589   59.8076   44.6891 W1         2 LUT     -0.333362
    158 C20        73.0105   61.6674   40.9624 W2         2 LUT     -0.323439
    159 C21        86.8790   64.5051   35.3009 Z1         2 LUT      0.406104
    160 C22        87.7691   64.2118   34.0103 Z2         2 LUT     -0.404965
    161 C23        88.0888   65.5634   33.2960 Z3         2 LUT      0.391255
    162 O23        88.8892   65.1547   32.1331 S1         2 LUT     -0.528210
    163 C24        86.7585   66.3047   32.9431 W6         2 LUT     -0.258361
    164 C25        85.6739   66.1754   33.6509 Z5         2 LUT      0.133546
    165 C26        85.5361   65.2472   34.8970 W8         2 LUT     -0.147008
    166 C27        84.7572   65.8163   36.1283 Z7         2 LUT      0.023843
    167 C28        83.6733   65.3123   36.7489 Z8         2 LUT     -0.216987
    168 C29        82.9877   65.9141   37.8796 Z9         2 LUT      0.206524
    169 C30        81.9354   65.2185   38.4542 Y1         2 LUT     -0.215556
    170 C31        81.0695   65.5747   39.5071 Y2         2 LUT      0.025142
    171 C32        79.9266   64.9048   39.7518 Y3         2 LUT     -0.212209
    172 C33        79.0285   64.9898   40.8967 Y4         2 LUT      0.240937
    173 C34        77.9702   64.0989   40.8937 Y5         2 LUT     -0.218862
    174 C35        76.9338   63.8928   41.8200 Y6         2 LUT     -0.023547
    175 C36        87.7868   65.3214   36.2741 Y7         2 LUT     -0.393485
    176 C37        86.4153   63.2720   36.1948 Y7         2 LUT     -0.393485
    177 C38        84.3987   66.7895   33.1285 Y9         2 LUT     -0.387526
    178 C39        83.2553   67.4057   38.1665 W1         2 LUT     -0.322618
    179 C40        79.7638   65.3645   42.1926 W2         2 LUT     -0.358472
    180 H403       80.6602   64.7418   42.4555 R7         2 LUT      0.097720
    181 H402       80.0295   66.4383   42.2091 R7         2 LUT      0.097720
    182 H401       79.0260   65.2134   42.9353 R7         2 LUT      0.097720
    183 H393       83.0258   67.5580   39.2455 R4         2 LUT      0.082505
    184 H392       84.2641   67.8165   37.9994 R4         2 LUT      0.082505
    185 H391       82.4969   68.1343   37.7366 R4         2 LUT      0.082505
    186 H383       84.0201   67.6582   33.7081 R1         2 LUT      0.104030
    187 H382       84.5485   67.2878   32.1925 R1         2 LUT      0.104030
    188 H381       83.5232   66.1185   32.9889 R1         2 LUT      0.104030
    189 H373       85.8876   62.5453   35.6050 T4         2 LUT      0.089537
    190 H372       87.2482   62.8136   36.7028 T4         2 LUT      0.089537
    191 H371       85.7615   63.6601   36.9399 T4         2 LUT      0.089537
    192 H363       88.7042   64.6978   36.5080 T4         2 LUT      0.089537
    193 H362       88.0916   66.3015   35.8701 T4         2 LUT      0.089537
    194 H361       87.3858   65.4249   37.2889 T4         2 LUT      0.089537
    195 H222       88.7783   63.9160   34.3216 U2         2 LUT      0.127376
    196 H221       87.2155   63.3645   33.4213 U2         2 LUT      0.127376
    197 H203       73.1749   60.5990   40.9403 R7         2 LUT      0.087068
    198 H202       71.8652   61.8480   40.7967 R7         2 LUT      0.087068
    199 H201       73.5516   62.0649   40.1072 R7         2 LUT      0.087068
    200 H193       69.4192   58.8590   45.2595 R4         2 LUT      0.089716
    201 H192       68.3204   59.9399   44.4752 R4         2 LUT      0.089716
    202 H191       69.7427   59.6524   43.7278 R4         2 LUT      0.089716
    203 H183       65.8602   63.5899   48.0549 R1         2 LUT      0.094572
    204 H182       67.5320   64.1462   47.7920 R1         2 LUT      0.094572
    205 H181       66.9837   62.8207   46.8666 R1         2 LUT      0.094572
    206 H173       68.9498   60.1090   52.1354 T4         2 LUT      0.093752
    207 H172       70.0008   60.9603   50.8609 T4         2 LUT      0.093752
    208 H171       68.6430   61.7500   51.6091 T4         2 LUT      0.093752
    209 H163       68.0514   58.2270   49.1707 T4         2 LUT      0.093752
    210 H162       69.6015   58.8946   49.6027 T4         2 LUT      0.093752
    211 H161       68.4363   58.2982   50.8289 T4         2 LUT      0.093752
    212 HO3        65.1842   61.5994   52.8517 Q1         2 LUT      0.300121
    213 H8         69.4711   62.4555   46.9313 U7         2 LUT      0.080784
    214 H7         68.4125   59.7183   47.3862 U6         2 LUT      0.042190
    215 H42        65.8413   63.4402   50.0943 U5         2 LUT      0.145166
    216 H41        67.3409   63.2970   50.8287 U5         2 LUT      0.145166
    217 H35        76.9058   64.4763   42.7650 T3         2 LUT      0.077919
    218 H34        77.8323   63.4500   39.9889 T2         2 LUT      0.073626
    219 H32        79.7970   64.1155   39.0106 T1         2 LUT      0.092510
    220 H31        81.2599   66.4289   40.1360 U9         2 LUT      0.070048
    221 H30        81.7318   64.2058   38.1261 U8         2 LUT      0.085442
    222 H3         64.9689   61.4463   50.5152 U3         2 LUT     -0.031596
    223 H28        83.3754   64.3129   36.5328 U7         2 LUT      0.084728
    224 H27        85.0632   66.7829   36.4566 U6         2 LUT      0.087291
    225 H26        84.9123   64.4390   34.5100 Q6         2 LUT      0.075325
    226 H24        86.6310   66.9239   32.0641 Q5         2 LUT      0.094482
    227 H23        88.6496   66.1598   34.0021 U3         2 LUT     -0.024869
    228 H22        66.1912   59.8670   49.6249 U2         2 LUT      0.127376
    229 H21        66.5971   59.4640   51.1549 U2         2 LUT      0.127376
    230 H15        75.8783   62.4604   40.5840 T3         2 LUT      0.093200
    231 H14        74.9537   63.4448   43.3657 T2         2 LUT      0.068865
    232 H12        73.1226   63.1792   44.1594 T1         2 LUT      0.095507
    233 H11        71.4300   60.9107   43.0537 U9         2 LUT      0.068930
    234 H10        71.2573   62.5907   45.6175 U8         2 LUT      0.083911
    235 H1         88.4525   64.6063   31.4845 Q1         2 LUT      0.297311
@<TRIPOS>BOND
    1     6     1 1
    2     7     2 1
    3     8     3 1
    4     9     4 1
    5    11     4 1
    6    12     6 1
    7    13     9 1
    8    16     9 1
    9    25     5 1
   10    25    16 1
   11    26    10 1
   12    26    17 1
   13    27    18 1
   14    28    14 1
   15    28    19 1
   16    29    12 1
   17    30    13 1
   18    31    24 1
   19    32     1 1
   20    32    25 1
   21    33    21 1
   22    33    26 1
   23    34    22 1
   24    34    27 1
   25    35    23 1
   26    35    28 1
   27    36    12 1
   28    36    24 1
   29    37    13 1
   30    37    15 1
   31    38    31 1
   32    39    20 1
   33    39    32 1
   34    40     2 1
   35    40    33 1
   36    41     3 1
   37    41    34 1
   38    42     4 1
   39    42    35 1
   40    43    38 1
   41    44     5 1
   42    44    17 1
   43    44    39 1
   44    45    10 1
   45    45    18 1
   46    45    40 1
   47    46    19 1
   48    46    41 1
   49    47    14 1
   50    47    16 1
   51    47    42 1
   52    48    38 1
   53    49    48 1
   54    50    49 1
   55    51    50 1
   56    52    51 1
   57    53    51 1
   58    54    53 1
   59    55    54 1
   60    56    55 1
   61    57    56 1
   62    58    56 1
   63    59    58 1
   64    60    59 1
   65    61    60 1
   66    62    61 1
   67    63    61 1
   68    64    27 1
   69    64    46 1
   70    65     5 1
   71    65    10 1
   72    65    64 1
   73    65    14 1
   74    66    23 1
   75    67    23 1
   76    68    23 1
   77    69    22 1
   78    70    22 1
   79    71    22 1
   80    72    21 1
   81    73    21 1
   82    74    21 1
   83    75    20 1
   84    76    20 1
   85    77    20 1
   86    78    15 1
   87    79    15 1
   88    80    15 1
   89    81     8 1
   90    82     8 1
   91    83     8 1
   92    84     7 1
   93    85     7 1
   94    86     6 1
   95    87     6 1
   96    88     3 1
   97    89     3 1
   98    90     1 1
   99    91     1 1
  100    92    63 1
  101    93    63 1
  102    94    63 1
  103    95    62 1
  104    96    62 1
  105    97    62 1
  106    98    60 1
  107    99    60 1
  108   100    59 1
  109   101    59 1
  110   102    58 1
  111   103    58 1
  112   104    57 1
  113   105    57 1
  114   106    57 1
  115   107    55 1
  116   108    55 1
  117   109    54 1
  118   110    54 1
  119   111    53 1
  120   112    53 1
  121   113    19 1
  122   114    18 1
  123   115    17 1
  124   116     9 1
  125   117     2 1
  126   118    52 1
  127   119    52 1
  128   120    52 1
  129   121    51 1
  130   122    50 1
  131   123    50 1
  132   124    49 1
  133   125    49 1
  134   126    48 1
  135   127    48 1
  136   128    43 1
  137   129    43 1
  138   130    43 1
  139   131    39 1
  140   132    32 1
  141   133    31 1
  142   134    61 1
  143   135    56 1
  144   136    24 1
  145   137    24 1
  146   139   138 1
  147   140   139 1
  148   141   140 1
  149   142   140 1
  150   143   142 1
  151   144   138 1
  152   144   143 1
  153   145   144 1
  154   146   145 1
  155   147   146 1
  156   148   147 1
  157   149   148 1
  158   150   149 1
  159   151   150 1
  160   152   151 1
  161   153   152 1
  162   154   138 1
  163   155   138 1
  164   156   143 1
  165   157   147 1
  166   158   151 1
  167   160   159 1
  168   161   160 1
  169   162   161 1
  170   163   161 1
  171   164   163 1
  172   165   159 1
  173   165   164 1
  174   166   165 1
  175   167   166 1
  176   168   167 1
  177   169   168 1
  178   170   169 1
  179   171   170 1
  180   172   171 1
  181   173   172 1
  182   174   153 1
  183   174   173 1
  184   175   159 1
  185   176   159 1
  186   177   164 1
  187   178   168 1
  188   179   172 1
  189   180   179 1
  190   181   179 1
  191   182   179 1
  192   183   178 1
  193   184   178 1
  194   185   178 1
  195   186   177 1
  196   187   177 1
  197   188   177 1
  198   189   176 1
  199   190   176 1
  200   191   176 1
  201   192   175 1
  202   193   175 1
  203   194   175 1
  204   195   160 1
  205   196   160 1
  206   197   158 1
  207   198   158 1
  208   199   158 1
  209   200   157 1
  210   201   157 1
  211   202   157 1
  212   203   156 1
  213   204   156 1
  214   205   156 1
  215   206   155 1
  216   207   155 1
  217   208   155 1
  218   209   154 1
  219   210   154 1
  220   211   154 1
  221   212   141 1
  222   213   146 1
  223   214   145 1
  224   215   142 1
  225   216   142 1
  226   217   174 1
  227   218   173 1
  228   219   171 1
  229   220   170 1
  230   221   169 1
  231   222   140 1
  232   223   167 1
  233   224   166 1
  234   225   165 1
  235   226   163 1
  236   227   161 1
  237   228   139 1
  238   229   139 1
  239   230   153 1
  240   231   152 1
  241   232   150 1
  242   233   149 1
  243   234   148 1
  244   235   162 1
  245   65    153 1
  246   65    174 1
@<TRIPOS>SUBSTRUCTURE
      1 CLA               1 ****               0 ****  **** 
      2 LUT             138 ****               0 ****  **** 
