@<TRIPOS>MOLECULE
Cpptraj generated mol2 file.
  235   246     2     0     0
SMALL
USER_CHARGES


@<TRIPOS>ATOM
      1 CAA        78.4769   57.2197   34.3829 a2         1 CLA     -0.055900
      2 CAB        78.3091   60.9337   43.3512 c8         1 CLA     -0.148500
      3 CAC        71.3313   56.6878   42.7234 a2         1 CLA     -0.012600
      4 CAD        74.3932   54.3182   35.4984 ck         1 CLA      0.398800
      5 NA         77.3454   57.4418   37.7994 ns         1 CLA     -0.225500
      6 CBA        79.7230   57.0202   33.5342 a2         1 CLA     -0.135000
      7 CBB        78.2987   60.2873   44.5849 c0         1 CLA     -0.395200
      8 CBC        71.4373   55.2622   43.2183 a3         1 CLA     -0.037700
      9 CBD        75.7744   54.9194   35.2589 a1         1 CLA     -0.053900
     10 NB         77.1803   58.9466   40.4160 nm         1 CLA     -0.295700
     11 OBD        73.7426   53.5032   34.7981 o2         1 CLA     -0.494600
     12 CGA        80.2538   55.5619   33.2414 c4         1 CLA      0.827000
     13 CGD        76.7704   53.7948   34.9667 c4         1 CLA      0.655300
     14 ND         74.6651   56.3326   38.4567 nm         1 CLA     -0.291600
     15 CED        77.6339   51.7077   35.7217 a3         1 CLA      0.005400
     16 CHA        76.1399   55.9113   36.3661 cs         1 CLA     -0.123800
     17 CHB        79.0591   58.9791   38.7672 aa         1 CLA     -0.291900
     18 CHC        75.8658   59.1159   42.4734 aa         1 CLA     -0.090400
     19 CHD        72.7926   56.1712   39.9750 aa         1 CLA     -0.052000
     20 CMA        80.5471   56.8015   37.3418 a3         1 CLA     -0.230700
     21 CMB        80.2614   61.0340   40.8744 a3         1 CLA     -0.180800
     22 CMC        73.4575   58.5889   44.3568 a3         1 CLA     -0.134000
     23 CMD        71.6567   54.2232   37.7205 a3         1 CLA     -0.141100
     24 C1         80.8656   53.4643   34.3088 a2         1 CLA      0.023000
     25 C1A        77.2208   56.7484   36.6086 ac         1 CLA     -0.015100
     26 C1B        78.4605   59.3210   40.0227 cr         1 CLA      0.054700
     27 C1C        74.7786   58.2977   42.1603 cn         1 CLA     -0.005600
     28 C1D        73.3596   55.8176   38.7324 ap         1 CLA     -0.047300
     29 O1A        80.3842   54.9989   32.1819 o2         1 CLA     -0.610800
     30 O1D        77.4074   53.6332   33.8981 o2         1 CLA     -0.558200
     31 C2         80.9418   52.9744   35.7071 c8         1 CLA     -0.325100
     32 C2A        78.5182   56.7408   35.8667 a1         1 CLA      0.098600
     33 C2B        78.9750   60.2228   41.0393 cb         1 CLA      0.088500
     34 C2C        73.5848   58.0181   42.9893 cb         1 CLA      0.053700
     35 C2D        72.9468   54.9734   37.6646 cb         1 CLA      0.058900
     36 O2A        80.3627   54.8450   34.4234 o1         1 CLA     -0.437200
     37 O2D        76.8004   52.8982   36.0205 o1         1 CLA     -0.357600
     38 C3         81.9205   52.3814   36.3841 c5         1 CLA      0.031200
     39 C3A        79.4441   57.6273   36.7046 a1         1 CLA      0.166800
     40 C3B        78.1074   60.2496   42.0709 cb         1 CLA      0.035000
     41 C3C        72.6573   57.2404   42.2619 cb         1 CLA     -0.089900
     42 C3D        73.9926   54.9185   36.7689 cb         1 CLA     -0.035900
     43 C4         82.0544   50.9258   36.5207 a3         1 CLA     -0.053300
     44 C4A        78.5681   58.0768   37.8179 ac         1 CLA      0.001800
     45 C4B        76.9816   59.4036   41.6748 cn         1 CLA     -0.020900
     46 C4C        73.3160   56.9625   41.0500 cr         1 CLA     -0.044400
     47 C4D        75.0150   55.8037   37.2225 c6         1 CLA     -0.046000
     48 C5         82.9945   53.1679   37.1248 a2         1 CLA     -0.070400
     49 C6         82.6142   53.3335   38.6093 a2         1 CLA      0.043900
     50 C7         83.7222   54.1037   39.3204 a2         1 CLA     -0.150000
     51 C8         84.0092   55.6114   38.9015 a1         1 CLA      0.064200
     52 C9         85.3925   55.7630   38.2462 a3         1 CLA     -0.259300
     53 C10        84.0228   56.5615   40.1781 a2         1 CLA     -0.071900
     54 C11        82.6191   56.9467   40.6959 a2         1 CLA      0.014500
     55 C12        82.7400   57.7260   41.9937 a2         1 CLA     -0.112100
     56 C13        83.1443   57.0471   43.3387 a1         1 CLA      0.089200
     57 C14        82.0259   56.2283   43.9587 a3         1 CLA     -0.239100
     58 C15        83.7849   58.0532   44.4180 a2         1 CLA     -0.102200
     59 C16        83.0595   59.3803   44.6651 a2         1 CLA      0.023900
     60 C17        83.5270   59.9986   45.9563 a2         1 CLA     -0.105700
     61 C18        82.7757   61.2781   46.4854 a1         1 CLA      0.206800
     62 C19        81.4666   60.9932   47.1492 a3         1 CLA     -0.280100
     63 C20        83.6156   62.0680   47.4718 a3         1 CLA     -0.280100
     64 NC         74.5160   57.6805   40.8807 nx         1 CLA     -0.309200
     65 MG         75.7705   57.7299   39.2828 mg         1 CLA      0.895000
     66 HMD3       71.4678   53.9357   38.7521 dc         1 CLA      0.064300
     67 HMD2       70.8530   54.8067   37.2516 dc         1 CLA      0.064300
     68 HMD1       71.7209   53.2233   37.2469 dc         1 CLA      0.064300
     69 HMC3       72.5002   58.5698   44.7232 dc         1 CLA      0.052100
     70 HMC2       74.0119   58.0726   45.1134 dc         1 CLA      0.052100
     71 HMC1       73.8580   59.6676   44.3361 dc         1 CLA      0.052100
     72 HMB3       80.3233   61.7845   41.7293 dc         1 CLA      0.063600
     73 HMB2       81.0466   60.2900   41.0147 dc         1 CLA      0.063600
     74 HMB1       80.1932   61.4332   39.8568 dc         1 CLA      0.063600
     75 HMA3       81.3332   57.3205   37.8418 dc         1 CLA      0.058300
     76 HMA2       80.1726   56.1264   38.1512 dc         1 CLA      0.058300
     77 HMA1       80.9898   56.1194   36.6068 dc         1 CLA      0.058300
     78 HED3       77.7558   51.0468   36.6091 dc         1 CLA      0.079300
     79 HED2       77.0666   51.0131   35.0453 dc         1 CLA      0.079300
     80 HED1       78.6920   51.9546   35.3530 dc         1 CLA      0.079300
     81 HBC3       70.4353   54.8994   43.2701 dc         1 CLA      0.016300
     82 HBC2       71.8797   54.7460   42.3799 dc         1 CLA      0.016300
     83 HBC1       72.0783   55.2828   44.1192 dc         1 CLA      0.016300
     84 HBB2       78.5061   60.8372   45.5128 da         1 CLA      0.183000
     85 HBB1       78.1748   59.1695   44.6482 da         1 CLA      0.183000
     86 HBA2       79.5349   57.3830   32.5119 dc         1 CLA      0.029400
     87 HBA1       80.5305   57.5032   34.0544 dc         1 CLA      0.029400
     88 HAC2       70.9667   57.2515   43.5427 dc         1 CLA      0.029300
     89 HAC1       70.5909   56.7749   41.9051 dc         1 CLA      0.029300
     90 HAA2       77.6496   56.7688   33.8411 dc         1 CLA      0.028700
     91 HAA1       78.3855   58.3473   34.4382 dc         1 CLA      0.028700
     92 H203       83.6774   61.5928   48.4988 dc         1 CLA      0.065600
     93 H202       84.5590   62.3468   46.9293 dc         1 CLA      0.065600
     94 H201       83.0637   63.0305   47.4945 dc         1 CLA      0.065600
     95 H193       81.6871   60.4317   48.0564 dc         1 CLA      0.065600
     96 H192       81.0302   61.9830   47.2766 dc         1 CLA      0.065600
     97 H191       80.8298   60.3444   46.5135 dc         1 CLA      0.065600
     98 H172       83.4742   59.2346   46.6924 dc         1 CLA      0.027600
     99 H171       84.5536   60.3680   45.8353 dc         1 CLA      0.027600
    100 H162       83.3717   59.9499   43.8009 dc         1 CLA      0.002900
    101 H161       81.9632   59.2002   44.6275 dc         1 CLA      0.002900
    102 H152       83.8162   57.5400   45.3450 dc         1 CLA      0.029100
    103 H151       84.7444   58.3736   44.1434 dc         1 CLA      0.029100
    104 H143       82.4211   55.7862   44.8808 dc         1 CLA      0.063600
    105 H142       81.1169   56.8845   44.0353 dc         1 CLA      0.063600
    106 H141       81.7852   55.4039   43.2436 dc         1 CLA      0.063600
    107 H122       83.4130   58.5238   41.7766 dc         1 CLA      0.032500
    108 H121       81.7452   58.1876   42.2384 dc         1 CLA      0.032500
    109 H112       82.1529   57.5861   39.9377 dc         1 CLA      0.006600
    110 H111       82.0375   56.0513   40.7893 dc         1 CLA      0.006600
    111 H102       84.5278   56.1039   40.9890 dc         1 CLA      0.024100
    112 H101       84.4321   57.5208   39.7886 dc         1 CLA      0.024100
    113 HHD        71.8895   55.5389   40.2601 da         1 CLA      0.174300
    114 HHC        75.8449   59.5879   43.4549 da         1 CLA      0.136800
    115 HHB        80.0938   59.4018   38.6579 da         1 CLA      0.138300
    116 HBD        75.7550   55.6588   34.3829 dc         1 CLA      0.107700
    117 HAB        78.4132   62.0023   43.3244 da         1 CLA      0.155200
    118 H93        85.3916   54.9861   37.4389 dc         1 CLA      0.069500
    119 H92        85.5032   56.7278   37.6976 dc         1 CLA      0.069500
    120 H91        86.2406   55.6261   38.9265 dc         1 CLA      0.069500
    121 H8         83.2821   55.9009   38.2427 dc         1 CLA      0.029300
    122 H72        83.4330   54.1247   40.3815 dc         1 CLA      0.044400
    123 H71        84.6022   53.4076   39.3089 dc         1 CLA      0.044400
    124 H62        81.6830   53.7956   38.8531 dc         1 CLA      0.015600
    125 H61        82.6074   52.2788   38.9705 dc         1 CLA      0.015600
    126 H52        83.8941   52.5364   37.0288 dc         1 CLA      0.033200
    127 H51        83.0033   54.0613   36.5173 dc         1 CLA      0.033200
    128 H43        81.9254   50.5460   37.5480 dc         1 CLA      0.037000
    129 H42        81.3033   50.4401   35.8873 dc         1 CLA      0.037000
    130 H41        82.9894   50.5308   36.2059 dc         1 CLA      0.037000
    131 H3A        79.8534   58.5183   36.1604 dc         1 CLA      0.041100
    132 H2A        78.8771   55.6979   35.8881 dc         1 CLA      0.083100
    133 H2         80.0854   53.3535   36.2559 da         1 CLA      0.180900
    134 H18        82.6115   62.0249   45.6810 dc         1 CLA     -0.003900
    135 H13        83.9175   56.2544   43.1824 dc         1 CLA      0.019700
    136 H12        80.1965   52.8092   33.8346 dc         1 CLA      0.120400
    137 H11        81.8740   53.3534   33.9264 dc         1 CLA      0.120400
    138 C1         68.2166   60.4919   50.1857 Z1         2 LUT      0.509236
    139 C2         66.8256   60.3643   50.8020 Z2         2 LUT     -0.434695
    140 C3         66.0751   61.6628   51.0957 Z3         2 LUT      0.437453
    141 O3         66.1700   62.0113   52.4307 S1         2 LUT     -0.547129
    142 C4         66.6657   62.7995   50.1586 Z4         2 LUT     -0.468603
    143 C5         67.3497   62.4008   48.8967 Z5         2 LUT      0.279246
    144 C6         68.2069   61.3333   48.9300 Z6         2 LUT     -0.305473
    145 C7         68.5889   60.5547   47.6755 Z7         2 LUT      0.069402
    146 C8         69.2542   61.2114   46.6570 Z8         2 LUT     -0.191631
    147 C9         69.8287   60.6450   45.4160 Z9         2 LUT      0.196698
    148 C10        70.6328   61.3894   44.6762 Y1         2 LUT     -0.208611
    149 C11        71.3960   61.1730   43.5210 Y2         2 LUT      0.030784
    150 C12        72.3769   61.9891   43.1661 Y3         2 LUT     -0.220316
    151 C13        73.2723   61.8647   42.0602 Y4         2 LUT      0.215937
    152 C14        74.4283   62.6770   42.0211 Y5         2 LUT     -0.185793
    153 C15        75.4574   62.8501   41.0719 Y6         2 LUT     -0.057835
    154 C16        68.7374   59.0332   50.0865 Y7         2 LUT     -0.405615
    155 C17        69.0832   61.0825   51.3773 Y7         2 LUT     -0.405615
    156 C18        66.7833   62.9796   47.6875 Y9         2 LUT     -0.369639
    157 C19        69.4501   59.2374   44.9073 W1         2 LUT     -0.333362
    158 C20        72.9037   60.9179   40.8859 W2         2 LUT     -0.323439
    159 C21        86.9244   64.5391   35.1812 Z1         2 LUT      0.406104
    160 C22        87.7381   64.1548   33.9193 Z2         2 LUT     -0.404965
    161 C23        87.8804   65.1580   32.7797 Z3         2 LUT      0.391255
    162 O23        88.4100   64.5357   31.6389 S1         2 LUT     -0.528210
    163 C24        86.5240   65.8435   32.4952 W6         2 LUT     -0.258361
    164 C25        85.4369   65.7304   33.3089 Z5         2 LUT      0.133546
    165 C26        85.4261   64.9033   34.6493 W8         2 LUT     -0.147008
    166 C27        84.4796   65.4869   35.7472 Z7         2 LUT      0.023843
    167 C28        83.4652   64.8761   36.3494 Z8         2 LUT     -0.216987
    168 C29        82.8174   65.3060   37.6326 Z9         2 LUT      0.206524
    169 C30        81.7626   64.5630   38.0965 Y1         2 LUT     -0.215556
    170 C31        80.9830   64.7565   39.3038 Y2         2 LUT      0.025142
    171 C32        79.8142   64.0546   39.4911 Y3         2 LUT     -0.212209
    172 C33        78.8776   64.1233   40.5994 Y4         2 LUT      0.240937
    173 C34        77.6855   63.5863   40.4027 Y5         2 LUT     -0.218862
    174 C35        76.5873   63.5870   41.2888 Y6         2 LUT     -0.023547
    175 C36        87.5464   65.6925   35.9831 Y7         2 LUT     -0.393485
    176 C37        87.0237   63.1719   36.0613 Y7         2 LUT     -0.393485
    177 C38        84.2232   66.5138   32.9131 Y9         2 LUT     -0.387526
    178 C39        83.2798   66.4637   38.4940 W1         2 LUT     -0.322618
    179 C40        79.3927   64.8660   41.8100 W2         2 LUT     -0.358472
    180 H403       79.4201   66.0013   41.6979 R7         2 LUT      0.097720
    181 H402       78.8144   64.4868   42.7346 R7         2 LUT      0.097720
    182 H401       80.3353   64.5039   42.0889 R7         2 LUT      0.097720
    183 H393       83.5915   66.1020   39.4562 R4         2 LUT      0.082505
    184 H392       84.1924   66.8701   38.1568 R4         2 LUT      0.082505
    185 H391       82.5733   67.2272   38.6017 R4         2 LUT      0.082505
    186 H383       84.2623   66.8034   31.8664 R1         2 LUT      0.104030
    187 H382       83.2883   65.9413   32.8897 R1         2 LUT      0.104030
    188 H381       84.0623   67.4280   33.5202 R1         2 LUT      0.104030
    189 H373       88.0710   62.8658   36.3612 T4         2 LUT      0.089537
    190 H372       86.4496   63.1104   36.9505 T4         2 LUT      0.089537
    191 H371       86.7381   62.2640   35.5530 T4         2 LUT      0.089537
    192 H363       87.1642   65.7120   37.0107 T4         2 LUT      0.089537
    193 H362       88.6136   65.6650   35.9215 T4         2 LUT      0.089537
    194 H361       87.3696   66.6530   35.5560 T4         2 LUT      0.089537
    195 H222       88.8065   63.9226   34.1425 U2         2 LUT      0.127376
    196 H221       87.3669   63.2260   33.5262 U2         2 LUT      0.127376
    197 H203       73.7644   60.8167   40.2093 R7         2 LUT      0.087068
    198 H202       72.6700   59.8941   41.1496 R7         2 LUT      0.087068
    199 H201       72.1077   61.3249   40.2838 R7         2 LUT      0.087068
    200 H193       69.3772   59.2380   43.7867 R4         2 LUT      0.089716
    201 H192       70.1450   58.5212   45.3098 R4         2 LUT      0.089716
    202 H191       68.4000   58.9469   45.2005 R4         2 LUT      0.089716
    203 H183       67.3202   63.9206   47.4457 R1         2 LUT      0.094572
    204 H182       66.7710   62.3563   46.7903 R1         2 LUT      0.094572
    205 H181       65.7077   63.1948   47.8352 R1         2 LUT      0.094572
    206 H173       70.2355   61.2258   51.1345 T4         2 LUT      0.093752
    207 H172       68.6344   62.0575   51.7451 T4         2 LUT      0.093752
    208 H171       68.9905   60.4829   52.2909 T4         2 LUT      0.093752
    209 H163       68.8485   58.5785   51.0544 T4         2 LUT      0.093752
    210 H162       67.9851   58.3461   49.5856 T4         2 LUT      0.093752
    211 H161       69.7265   58.8919   49.6473 T4         2 LUT      0.093752
    212 HO3        65.5322   61.4639   52.9924 Q1         2 LUT      0.300121
    213 H8         69.4495   62.2412   46.8818 U7         2 LUT      0.080784
    214 H7         68.3793   59.5236   47.4793 U6         2 LUT      0.042190
    215 H42        65.8150   63.4305   49.8495 U5         2 LUT      0.145166
    216 H41        67.3424   63.4127   50.7503 U5         2 LUT      0.145166
    217 H35        76.7285   64.1432   42.2477 T3         2 LUT      0.077919
    218 H34        77.3779   63.2766   39.4144 T2         2 LUT      0.073626
    219 H32        79.4698   63.4479   38.5951 T1         2 LUT      0.092510
    220 H31        81.4050   65.4797   39.9865 U9         2 LUT      0.070048
    221 H30        81.4254   63.7265   37.4378 U8         2 LUT      0.085442
    222 H3         65.0403   61.5099   50.7367 U3         2 LUT     -0.031596
    223 H28        83.2443   63.9346   35.9378 U7         2 LUT      0.084728
    224 H27        84.7351   66.4436   36.1510 U6         2 LUT      0.087291
    225 H26        84.9423   64.0029   34.2448 Q6         2 LUT      0.075325
    226 H24        86.5388   66.3872   31.5537 Q5         2 LUT      0.094482
    227 H23        88.4361   66.0332   33.2149 U3         2 LUT     -0.024869
    228 H22        66.0955   59.8599   50.1552 U2         2 LUT      0.127376
    229 H21        66.8933   59.8035   51.7556 U2         2 LUT      0.127376
    230 H15        75.3593   62.3350   40.1062 T3         2 LUT      0.093200
    231 H14        74.5928   63.4543   42.8283 T2         2 LUT      0.068865
    232 H12        72.5132   62.8685   43.7909 T1         2 LUT      0.095507
    233 H11        71.1418   60.3101   42.8880 U9         2 LUT      0.068930
    234 H10        70.8115   62.3713   44.9517 U8         2 LUT      0.083911
    235 H1         87.8156   63.9520   31.1161 Q1         2 LUT      0.297311
@<TRIPOS>BOND
    1     6     1 1
    2     7     2 1
    3     8     3 1
    4     9     4 1
    5    11     4 1
    6    12     6 1
    7    13     9 1
    8    16     9 1
    9    25     5 1
   10    25    16 1
   11    26    10 1
   12    26    17 1
   13    27    18 1
   14    28    14 1
   15    28    19 1
   16    29    12 1
   17    30    13 1
   18    31    24 1
   19    32     1 1
   20    32    25 1
   21    33    21 1
   22    33    26 1
   23    34    22 1
   24    34    27 1
   25    35    23 1
   26    35    28 1
   27    36    12 1
   28    36    24 1
   29    37    13 1
   30    37    15 1
   31    38    31 1
   32    39    20 1
   33    39    32 1
   34    40     2 1
   35    40    33 1
   36    41     3 1
   37    41    34 1
   38    42     4 1
   39    42    35 1
   40    43    38 1
   41    44     5 1
   42    44    17 1
   43    44    39 1
   44    45    10 1
   45    45    18 1
   46    45    40 1
   47    46    19 1
   48    46    41 1
   49    47    14 1
   50    47    16 1
   51    47    42 1
   52    48    38 1
   53    49    48 1
   54    50    49 1
   55    51    50 1
   56    52    51 1
   57    53    51 1
   58    54    53 1
   59    55    54 1
   60    56    55 1
   61    57    56 1
   62    58    56 1
   63    59    58 1
   64    60    59 1
   65    61    60 1
   66    62    61 1
   67    63    61 1
   68    64    27 1
   69    64    46 1
   70    65     5 1
   71    65    10 1
   72    65    64 1
   73    65    14 1
   74    66    23 1
   75    67    23 1
   76    68    23 1
   77    69    22 1
   78    70    22 1
   79    71    22 1
   80    72    21 1
   81    73    21 1
   82    74    21 1
   83    75    20 1
   84    76    20 1
   85    77    20 1
   86    78    15 1
   87    79    15 1
   88    80    15 1
   89    81     8 1
   90    82     8 1
   91    83     8 1
   92    84     7 1
   93    85     7 1
   94    86     6 1
   95    87     6 1
   96    88     3 1
   97    89     3 1
   98    90     1 1
   99    91     1 1
  100    92    63 1
  101    93    63 1
  102    94    63 1
  103    95    62 1
  104    96    62 1
  105    97    62 1
  106    98    60 1
  107    99    60 1
  108   100    59 1
  109   101    59 1
  110   102    58 1
  111   103    58 1
  112   104    57 1
  113   105    57 1
  114   106    57 1
  115   107    55 1
  116   108    55 1
  117   109    54 1
  118   110    54 1
  119   111    53 1
  120   112    53 1
  121   113    19 1
  122   114    18 1
  123   115    17 1
  124   116     9 1
  125   117     2 1
  126   118    52 1
  127   119    52 1
  128   120    52 1
  129   121    51 1
  130   122    50 1
  131   123    50 1
  132   124    49 1
  133   125    49 1
  134   126    48 1
  135   127    48 1
  136   128    43 1
  137   129    43 1
  138   130    43 1
  139   131    39 1
  140   132    32 1
  141   133    31 1
  142   134    61 1
  143   135    56 1
  144   136    24 1
  145   137    24 1
  146   139   138 1
  147   140   139 1
  148   141   140 1
  149   142   140 1
  150   143   142 1
  151   144   138 1
  152   144   143 1
  153   145   144 1
  154   146   145 1
  155   147   146 1
  156   148   147 1
  157   149   148 1
  158   150   149 1
  159   151   150 1
  160   152   151 1
  161   153   152 1
  162   154   138 1
  163   155   138 1
  164   156   143 1
  165   157   147 1
  166   158   151 1
  167   160   159 1
  168   161   160 1
  169   162   161 1
  170   163   161 1
  171   164   163 1
  172   165   159 1
  173   165   164 1
  174   166   165 1
  175   167   166 1
  176   168   167 1
  177   169   168 1
  178   170   169 1
  179   171   170 1
  180   172   171 1
  181   173   172 1
  182   174   153 1
  183   174   173 1
  184   175   159 1
  185   176   159 1
  186   177   164 1
  187   178   168 1
  188   179   172 1
  189   180   179 1
  190   181   179 1
  191   182   179 1
  192   183   178 1
  193   184   178 1
  194   185   178 1
  195   186   177 1
  196   187   177 1
  197   188   177 1
  198   189   176 1
  199   190   176 1
  200   191   176 1
  201   192   175 1
  202   193   175 1
  203   194   175 1
  204   195   160 1
  205   196   160 1
  206   197   158 1
  207   198   158 1
  208   199   158 1
  209   200   157 1
  210   201   157 1
  211   202   157 1
  212   203   156 1
  213   204   156 1
  214   205   156 1
  215   206   155 1
  216   207   155 1
  217   208   155 1
  218   209   154 1
  219   210   154 1
  220   211   154 1
  221   212   141 1
  222   213   146 1
  223   214   145 1
  224   215   142 1
  225   216   142 1
  226   217   174 1
  227   218   173 1
  228   219   171 1
  229   220   170 1
  230   221   169 1
  231   222   140 1
  232   223   167 1
  233   224   166 1
  234   225   165 1
  235   226   163 1
  236   227   161 1
  237   228   139 1
  238   229   139 1
  239   230   153 1
  240   231   152 1
  241   232   150 1
  242   233   149 1
  243   234   148 1
  244   235   162 1
  245   65    153 1
  246   65    174 1
@<TRIPOS>SUBSTRUCTURE
      1 CLA               1 ****               0 ****  **** 
      2 LUT             138 ****               0 ****  **** 
