@<TRIPOS>MOLECULE
Cpptraj generated mol2 file.
  235   246     2     0     0
SMALL
USER_CHARGES


@<TRIPOS>ATOM
      1 CAA        78.3066   59.1034   32.9351 a2         1 CLA     -0.055900
      2 CAB        77.9019   61.8254   42.5078 c8         1 CLA     -0.148500
      3 CAC        71.3548   57.5217   41.3480 a2         1 CLA     -0.012600
      4 CAD        74.2227   56.1609   33.9663 ck         1 CLA      0.398800
      5 NA         77.1795   59.2767   36.3220 ns         1 CLA     -0.225500
      6 CBA        79.6282   59.0254   32.1556 a2         1 CLA     -0.135000
      7 CBB        78.9996   62.3513   43.1608 c0         1 CLA     -0.395200
      8 CBC        71.6146   56.0311   41.3162 a3         1 CLA     -0.037700
      9 CBD        75.7022   56.6368   33.7990 a1         1 CLA     -0.053900
     10 NB         76.9015   60.3111   39.1948 nm         1 CLA     -0.295700
     11 OBD        73.6150   55.4261   33.1701 o2         1 CLA     -0.494600
     12 CGA        80.1243   57.6725   31.6904 c4         1 CLA      0.827000
     13 CGD        76.6792   55.4743   33.7594 c4         1 CLA      0.655300
     14 ND         74.4722   58.1031   36.8810 nm         1 CLA     -0.291600
     15 CED        77.1671   53.3534   34.7564 a3         1 CLA      0.005400
     16 CHA        76.0274   57.6436   34.9367 cs         1 CLA     -0.123800
     17 CHB        78.9096   60.4816   37.6916 aa         1 CLA     -0.291900
     18 CHC        75.5574   60.1464   41.3608 aa         1 CLA     -0.090400
     19 CHD        72.5824   57.7066   38.4371 aa         1 CLA     -0.052000
     20 CMA        80.6464   58.8727   35.7304 a3         1 CLA     -0.230700
     21 CMB        80.0177   62.2084   39.9994 a3         1 CLA     -0.180800
     22 CMC        73.3582   58.8811   43.2291 a3         1 CLA     -0.134000
     23 CMD        71.5401   56.0346   35.9526 a3         1 CLA     -0.141100
     24 C1         81.1519   55.5727   32.5698 a2         1 CLA      0.023000
     25 C1A        77.1701   58.5094   35.1778 ac         1 CLA     -0.015100
     26 C1B        78.1710   60.7546   38.8919 cr         1 CLA      0.054700
     27 C1C        74.4423   59.4192   40.8822 cn         1 CLA     -0.005600
     28 C1D        73.2378   57.5576   37.1391 ap         1 CLA     -0.047300
     29 O1A        79.9254   57.1158   30.5683 o2         1 CLA     -0.610800
     30 O1D        77.6005   55.2727   32.9658 o2         1 CLA     -0.558200
     31 C2         81.5947   55.1592   33.9740 c8         1 CLA     -0.325100
     32 C2A        78.4734   58.6136   34.4111 a1         1 CLA      0.098600
     33 C2B        78.7222   61.4480   40.0090 cb         1 CLA      0.088500
     34 C2C        73.4189   58.9200   41.7564 cb         1 CLA      0.053700
     35 C2D        72.8669   56.6802   36.1192 cb         1 CLA      0.058900
     36 O2A        80.7663   57.0031   32.7084 o1         1 CLA     -0.437200
     37 O2D        76.4079   54.6207   34.7985 o1         1 CLA     -0.357600
     38 C3         82.4398   54.2145   34.3047 c5         1 CLA      0.031200
     39 C3A        79.3240   59.5467   35.2993 a1         1 CLA      0.166800
     40 C3B        77.7904   61.3526   41.1185 cb         1 CLA      0.035000
     41 C3C        72.5623   58.2782   40.8925 cb         1 CLA     -0.089900
     42 C3D        73.8967   56.6344   35.2327 cb         1 CLA     -0.035900
     43 C4         81.8419   52.8767   34.7159 a3         1 CLA     -0.053300
     44 C4A        78.4466   59.8591   36.5213 ac         1 CLA      0.001800
     45 C4B        76.6851   60.5158   40.5930 cn         1 CLA     -0.020900
     46 C4C        73.1456   58.4049   39.5692 cr         1 CLA     -0.044400
     47 C4D        74.8816   57.5653   35.7062 c6         1 CLA     -0.046000
     48 C5         83.9547   54.3995   34.0625 a2         1 CLA     -0.070400
     49 C6         84.5879   55.7352   34.4284 a2         1 CLA      0.043900
     50 C7         84.4216   56.0654   35.9246 a2         1 CLA     -0.150000
     51 C8         84.5933   57.5710   36.2535 a1         1 CLA      0.064200
     52 C9         85.9430   58.1701   35.7457 a3         1 CLA     -0.259300
     53 C10        84.5350   57.8283   37.8009 a2         1 CLA     -0.071900
     54 C11        83.2106   57.4855   38.5309 a2         1 CLA      0.014500
     55 C12        83.3445   57.6448   40.0443 a2         1 CLA     -0.112100
     56 C13        82.0904   57.3370   40.8222 a1         1 CLA      0.089200
     57 C14        80.8394   58.1798   40.5288 a3         1 CLA     -0.239100
     58 C15        82.3328   57.2252   42.3806 a2         1 CLA     -0.102200
     59 C16        82.8166   58.4825   43.0368 a2         1 CLA      0.023900
     60 C17        83.1038   58.2767   44.5106 a2         1 CLA     -0.105700
     61 C18        83.1889   59.5996   45.4174 a1         1 CLA      0.206800
     62 C19        81.8299   60.4501   45.3470 a3         1 CLA     -0.280100
     63 C20        83.5232   59.2952   46.9018 a3         1 CLA     -0.280100
     64 NC         74.2888   59.0744   39.5924 nx         1 CLA     -0.309200
     65 MG         75.6425   59.3512   37.9102 mg         1 CLA      0.895000
     66 HMD3       70.7019   56.7381   36.0131 dc         1 CLA      0.064300
     67 HMD2       71.4563   55.4542   34.9819 dc         1 CLA      0.064300
     68 HMD1       71.4054   55.3954   36.7922 dc         1 CLA      0.064300
     69 HMC3       72.5202   58.5727   43.8098 dc         1 CLA      0.052100
     70 HMC2       74.1592   58.2417   43.6627 dc         1 CLA      0.052100
     71 HMC1       73.5988   59.8701   43.5244 dc         1 CLA      0.052100
     72 HMB3       80.0728   62.8845   40.8814 dc         1 CLA      0.063600
     73 HMB2       80.8260   61.4745   40.1330 dc         1 CLA      0.063600
     74 HMB1       80.3855   62.6417   39.0066 dc         1 CLA      0.063600
     75 HMA3       80.4923   58.1827   36.5753 dc         1 CLA      0.058300
     76 HMA2       81.1758   58.2743   34.9257 dc         1 CLA      0.058300
     77 HMA1       81.3029   59.7301   35.9242 dc         1 CLA      0.058300
     78 HED3       78.2146   53.5759   34.8326 dc         1 CLA      0.079300
     79 HED2       76.8376   52.8490   35.6982 dc         1 CLA      0.079300
     80 HED1       76.8148   52.8189   33.8326 dc         1 CLA      0.079300
     81 HBC3       70.9921   55.4880   41.9874 dc         1 CLA      0.016300
     82 HBC2       71.6764   55.7011   40.2699 dc         1 CLA      0.016300
     83 HBC1       72.6021   55.8675   41.8044 dc         1 CLA      0.016300
     84 HBB2       78.8551   62.6287   44.2257 da         1 CLA      0.183000
     85 HBB1       80.0075   62.2250   42.7791 da         1 CLA      0.183000
     86 HBA2       79.6948   59.7337   31.3696 dc         1 CLA      0.029400
     87 HBA1       80.4194   59.3797   32.8873 dc         1 CLA      0.029400
     88 HAC2       71.0474   57.9580   42.3131 dc         1 CLA      0.029300
     89 HAC1       70.5640   57.6885   40.6207 dc         1 CLA      0.029300
     90 HAA2       77.6332   58.3879   32.5224 dc         1 CLA      0.028700
     91 HAA1       77.8775   60.0799   32.9576 dc         1 CLA      0.028700
     92 H203       83.5096   60.1869   47.5798 dc         1 CLA      0.065600
     93 H202       82.7943   58.6747   47.3745 dc         1 CLA      0.065600
     94 H201       84.5436   58.8243   47.0531 dc         1 CLA      0.065600
     95 H193       81.0035   59.9364   45.7614 dc         1 CLA      0.065600
     96 H192       81.9409   61.2719   45.9933 dc         1 CLA      0.065600
     97 H191       81.5972   60.9748   44.3693 dc         1 CLA      0.065600
     98 H172       82.3878   57.5395   44.8800 dc         1 CLA      0.027600
     99 H171       84.1395   57.8818   44.5421 dc         1 CLA      0.027600
    100 H162       83.6718   58.9850   42.5774 dc         1 CLA      0.002900
    101 H161       81.9633   59.1575   42.8819 dc         1 CLA      0.002900
    102 H152       81.4375   56.7981   42.8753 dc         1 CLA      0.029100
    103 H151       83.1033   56.5201   42.5957 dc         1 CLA      0.029100
    104 H143       80.7264   58.2449   39.4670 dc         1 CLA      0.063600
    105 H142       79.9836   57.7738   41.0286 dc         1 CLA      0.063600
    106 H141       80.9797   59.2248   40.8352 dc         1 CLA      0.063600
    107 H122       84.1209   56.9176   40.2505 dc         1 CLA      0.032500
    108 H121       83.6887   58.6686   40.2818 dc         1 CLA      0.032500
    109 H112       82.3930   58.0205   38.1821 dc         1 CLA      0.006600
    110 H111       83.0884   56.3934   38.3323 dc         1 CLA      0.006600
    111 H102       85.4122   57.3104   38.2155 dc         1 CLA      0.024100
    112 H101       84.5625   58.8693   38.0660 dc         1 CLA      0.024100
    113 HHD        71.6356   57.2528   38.4357 da         1 CLA      0.174300
    114 HHC        75.5967   60.1535   42.4563 da         1 CLA      0.136800
    115 HHB        79.9615   60.7491   37.6499 da         1 CLA      0.138300
    116 HBD        75.6776   57.2267   32.7892 dc         1 CLA      0.107700
    117 HAB        76.9830   61.7938   43.1501 da         1 CLA      0.155200
    118 H93        86.6862   57.4513   35.8711 dc         1 CLA      0.069500
    119 H92        85.9016   58.3317   34.6802 dc         1 CLA      0.069500
    120 H91        86.1420   59.0538   36.3495 dc         1 CLA      0.069500
    121 H8         83.7755   58.1763   35.8447 dc         1 CLA      0.029300
    122 H72        83.3817   55.8466   36.0872 dc         1 CLA      0.044400
    123 H71        84.9991   55.4308   36.5964 dc         1 CLA      0.044400
    124 H62        85.6681   55.6459   34.1918 dc         1 CLA      0.015600
    125 H61        84.1962   56.5731   33.8106 dc         1 CLA      0.015600
    126 H52        84.4795   53.5258   34.4342 dc         1 CLA      0.033200
    127 H51        84.0366   54.1775   32.9541 dc         1 CLA      0.033200
    128 H43        82.1441   52.0797   33.9875 dc         1 CLA      0.037000
    129 H42        82.2333   52.6967   35.7464 dc         1 CLA      0.037000
    130 H41        80.7933   52.8046   34.6795 dc         1 CLA      0.037000
    131 H3A        79.5832   60.5043   34.7688 dc         1 CLA      0.041100
    132 H2A        78.9484   57.6406   34.4187 dc         1 CLA      0.083100
    133 H2         81.2874   55.8526   34.7677 da         1 CLA      0.180900
    134 H18        84.0397   60.2685   45.0761 dc         1 CLA     -0.003900
    135 H13        81.8359   56.3327   40.4774 dc         1 CLA      0.019700
    136 H12        80.2232   55.1151   32.2882 dc         1 CLA      0.120400
    137 H11        81.8664   55.2801   31.7946 dc         1 CLA      0.120400
    138 C1         68.2300   60.4319   49.1297 Z1         2 LUT      0.509236
    139 C2         66.7651   60.4215   49.6370 Z2         2 LUT     -0.434695
    140 C3         65.9572   61.6582   49.9743 Z3         2 LUT      0.437453
    141 O3         65.7784   61.6605   51.3471 S1         2 LUT     -0.547129
    142 C4         66.7775   62.8330   49.5684 Z4         2 LUT     -0.468603
    143 C5         67.4531   62.7108   48.2715 Z5         2 LUT      0.279246
    144 C6         68.2392   61.6117   48.0649 Z6         2 LUT     -0.305473
    145 C7         68.6744   61.2835   46.6835 Z7         2 LUT      0.069402
    146 C8         69.5216   61.9021   45.9047 Z8         2 LUT     -0.191631
    147 C9         70.0425   61.6297   44.5547 Z9         2 LUT      0.196698
    148 C10        71.0031   62.4112   43.9993 Y1         2 LUT     -0.208611
    149 C11        71.7388   62.2808   42.7771 Y2         2 LUT      0.030784
    150 C12        72.7411   63.1017   42.4310 Y3         2 LUT     -0.220316
    151 C13        73.6459   63.0962   41.3147 Y4         2 LUT      0.215937
    152 C14        74.7568   63.9252   41.3219 Y5         2 LUT     -0.185793
    153 C15        75.7813   64.0834   40.3571 Y6         2 LUT     -0.057835
    154 C16        68.7766   59.0555   48.7066 Y7         2 LUT     -0.405615
    155 C17        69.0651   60.8978   50.3612 Y7         2 LUT     -0.405615
    156 C18        66.7613   63.5691   47.1792 Y9         2 LUT     -0.369639
    157 C19        69.5765   60.4164   43.9020 W1         2 LUT     -0.333362
    158 C20        73.1046   62.5437   39.9570 W2         2 LUT     -0.323439
    159 C21        87.1766   65.8513   34.5574 Z1         2 LUT      0.406104
    160 C22        87.7739   65.2577   33.2312 Z2         2 LUT     -0.404965
    161 C23        87.8850   66.2349   32.0319 Z3         2 LUT      0.391255
    162 O23        88.4372   65.5333   30.9251 S1         2 LUT     -0.528210
    163 C24        86.5576   67.0977   31.9727 W6         2 LUT     -0.258361
    164 C25        85.6470   67.1621   32.9186 Z5         2 LUT      0.133546
    165 C26        85.7493   66.4068   34.2374 W8         2 LUT     -0.147008
    166 C27        85.0494   66.9800   35.4469 Z7         2 LUT      0.023843
    167 C28        84.1438   66.2029   36.1502 Z8         2 LUT     -0.216987
    168 C29        83.4265   66.6649   37.3992 Z9         2 LUT      0.206524
    169 C30        82.3382   65.9234   37.7021 Y1         2 LUT     -0.215556
    170 C31        81.4312   66.1504   38.7409 Y2         2 LUT      0.025142
    171 C32        80.1659   65.6890   38.7123 Y3         2 LUT     -0.212209
    172 C33        79.1339   65.7541   39.7614 Y4         2 LUT      0.240937
    173 C34        77.9444   65.0133   39.5942 Y5         2 LUT     -0.218862
    174 C35        76.8225   64.9052   40.5106 Y6         2 LUT     -0.023547
    175 C36        88.0902   66.9891   34.9816 Y7         2 LUT     -0.393485
    176 C37        87.2344   64.7602   35.6712 Y7         2 LUT     -0.393485
    177 C38        84.5082   68.2207   32.8050 Y9         2 LUT     -0.387526
    178 C39        83.8688   67.9140   38.1905 W1         2 LUT     -0.322618
    179 C40        79.4302   66.5900   40.9178 W2         2 LUT     -0.358472
    180 H403       80.3680   66.2756   41.5136 R7         2 LUT      0.097720
    181 H402       79.4888   67.6710   40.6970 R7         2 LUT      0.097720
    182 H401       78.5812   66.6482   41.6371 R7         2 LUT      0.097720
    183 H393       83.8714   67.7528   39.2862 R4         2 LUT      0.082505
    184 H392       84.8753   68.1941   38.0811 R4         2 LUT      0.082505
    185 H391       83.3143   68.8253   37.9628 R4         2 LUT      0.082505
    186 H383       84.6698   68.8066   31.8633 R1         2 LUT      0.104030
    187 H382       83.5033   67.8118   32.7794 R1         2 LUT      0.104030
    188 H381       84.5280   68.9590   33.6173 R1         2 LUT      0.104030
    189 H373       86.8801   65.0422   36.6522 T4         2 LUT      0.089537
    190 H372       86.6659   63.9332   35.3421 T4         2 LUT      0.089537
    191 H371       88.3465   64.4226   35.8613 T4         2 LUT      0.089537
    192 H363       89.1066   66.7436   35.1209 T4         2 LUT      0.089537
    193 H362       88.2318   67.8903   34.3418 T4         2 LUT      0.089537
    194 H361       87.6496   67.4544   35.8530 T4         2 LUT      0.089537
    195 H222       88.7811   64.7544   33.3472 U2         2 LUT      0.127376
    196 H221       87.1432   64.4445   32.8165 U2         2 LUT      0.127376
    197 H203       73.7467   61.8616   39.4623 R7         2 LUT      0.087068
    198 H202       72.1594   62.0128   40.0077 R7         2 LUT      0.087068
    199 H201       73.0588   63.4104   39.2131 R7         2 LUT      0.087068
    200 H193       70.3453   59.8974   43.3367 R4         2 LUT      0.089716
    201 H192       69.2001   59.7148   44.6072 R4         2 LUT      0.089716
    202 H191       68.7216   60.5834   43.2784 R4         2 LUT      0.089716
    203 H183       65.6889   63.8251   47.4729 R1         2 LUT      0.094572
    204 H182       67.3416   64.4771   46.9519 R1         2 LUT      0.094572
    205 H181       66.7112   63.0075   46.1985 R1         2 LUT      0.094572
    206 H173       70.0810   61.0522   50.0509 T4         2 LUT      0.093752
    207 H172       68.7324   61.7633   50.9134 T4         2 LUT      0.093752
    208 H171       69.1501   60.2109   51.2107 T4         2 LUT      0.093752
    209 H163       69.7181   59.0870   48.1746 T4         2 LUT      0.093752
    210 H162       68.9095   58.3275   49.5169 T4         2 LUT      0.093752
    211 H161       68.0404   58.5542   48.0327 T4         2 LUT      0.093752
    212 HO3        64.9295   62.0143   51.5291 Q1         2 LUT      0.300121
    213 H8         69.7254   62.9664   46.3038 U7         2 LUT      0.080784
    214 H7         68.2688   60.3616   46.1902 U6         2 LUT      0.042190
    215 H42        66.0037   63.6164   49.5188 U5         2 LUT      0.145166
    216 H41        67.4379   63.3088   50.3488 U5         2 LUT      0.145166
    217 H35        76.8789   65.3342   41.5308 T3         2 LUT      0.077919
    218 H34        77.8895   64.3961   38.7118 T2         2 LUT      0.073626
    219 H32        79.8319   65.2902   37.7172 T1         2 LUT      0.092510
    220 H31        81.7657   66.6644   39.6307 U9         2 LUT      0.070048
    221 H30        82.1740   64.9788   37.1238 U8         2 LUT      0.085442
    222 H3         65.0091   61.7906   49.4266 U3         2 LUT     -0.031596
    223 H28        83.8862   65.1645   35.8517 U7         2 LUT      0.084728
    224 H27        85.1801   67.9966   35.7766 U6         2 LUT      0.087291
    225 H26        85.0244   65.6126   33.9333 Q6         2 LUT      0.075325
    226 H24        86.4801   67.7693   31.1135 Q5         2 LUT      0.094482
    227 H23        88.6820   66.9575   32.3568 U3         2 LUT     -0.024869
    228 H22        66.1588   59.9481   48.8404 U2         2 LUT      0.127376
    229 H21        66.8715   59.7880   50.4596 U2         2 LUT      0.127376
    230 H15        75.6800   63.4470   39.4712 T3         2 LUT      0.093200
    231 H14        74.9451   64.4781   42.1897 T2         2 LUT      0.068865
    232 H12        72.9846   63.8264   43.2320 T1         2 LUT      0.095507
    233 H11        71.4913   61.4581   42.1375 U9         2 LUT      0.068930
    234 H10        71.2015   63.3614   44.5205 U8         2 LUT      0.083911
    235 H1         88.1503   65.9218   30.0600 Q1         2 LUT      0.297311
@<TRIPOS>BOND
    1     6     1 1
    2     7     2 1
    3     8     3 1
    4     9     4 1
    5    11     4 1
    6    12     6 1
    7    13     9 1
    8    16     9 1
    9    25     5 1
   10    25    16 1
   11    26    10 1
   12    26    17 1
   13    27    18 1
   14    28    14 1
   15    28    19 1
   16    29    12 1
   17    30    13 1
   18    31    24 1
   19    32     1 1
   20    32    25 1
   21    33    21 1
   22    33    26 1
   23    34    22 1
   24    34    27 1
   25    35    23 1
   26    35    28 1
   27    36    12 1
   28    36    24 1
   29    37    13 1
   30    37    15 1
   31    38    31 1
   32    39    20 1
   33    39    32 1
   34    40     2 1
   35    40    33 1
   36    41     3 1
   37    41    34 1
   38    42     4 1
   39    42    35 1
   40    43    38 1
   41    44     5 1
   42    44    17 1
   43    44    39 1
   44    45    10 1
   45    45    18 1
   46    45    40 1
   47    46    19 1
   48    46    41 1
   49    47    14 1
   50    47    16 1
   51    47    42 1
   52    48    38 1
   53    49    48 1
   54    50    49 1
   55    51    50 1
   56    52    51 1
   57    53    51 1
   58    54    53 1
   59    55    54 1
   60    56    55 1
   61    57    56 1
   62    58    56 1
   63    59    58 1
   64    60    59 1
   65    61    60 1
   66    62    61 1
   67    63    61 1
   68    64    27 1
   69    64    46 1
   70    65     5 1
   71    65    10 1
   72    65    64 1
   73    65    14 1
   74    66    23 1
   75    67    23 1
   76    68    23 1
   77    69    22 1
   78    70    22 1
   79    71    22 1
   80    72    21 1
   81    73    21 1
   82    74    21 1
   83    75    20 1
   84    76    20 1
   85    77    20 1
   86    78    15 1
   87    79    15 1
   88    80    15 1
   89    81     8 1
   90    82     8 1
   91    83     8 1
   92    84     7 1
   93    85     7 1
   94    86     6 1
   95    87     6 1
   96    88     3 1
   97    89     3 1
   98    90     1 1
   99    91     1 1
  100    92    63 1
  101    93    63 1
  102    94    63 1
  103    95    62 1
  104    96    62 1
  105    97    62 1
  106    98    60 1
  107    99    60 1
  108   100    59 1
  109   101    59 1
  110   102    58 1
  111   103    58 1
  112   104    57 1
  113   105    57 1
  114   106    57 1
  115   107    55 1
  116   108    55 1
  117   109    54 1
  118   110    54 1
  119   111    53 1
  120   112    53 1
  121   113    19 1
  122   114    18 1
  123   115    17 1
  124   116     9 1
  125   117     2 1
  126   118    52 1
  127   119    52 1
  128   120    52 1
  129   121    51 1
  130   122    50 1
  131   123    50 1
  132   124    49 1
  133   125    49 1
  134   126    48 1
  135   127    48 1
  136   128    43 1
  137   129    43 1
  138   130    43 1
  139   131    39 1
  140   132    32 1
  141   133    31 1
  142   134    61 1
  143   135    56 1
  144   136    24 1
  145   137    24 1
  146   139   138 1
  147   140   139 1
  148   141   140 1
  149   142   140 1
  150   143   142 1
  151   144   138 1
  152   144   143 1
  153   145   144 1
  154   146   145 1
  155   147   146 1
  156   148   147 1
  157   149   148 1
  158   150   149 1
  159   151   150 1
  160   152   151 1
  161   153   152 1
  162   154   138 1
  163   155   138 1
  164   156   143 1
  165   157   147 1
  166   158   151 1
  167   160   159 1
  168   161   160 1
  169   162   161 1
  170   163   161 1
  171   164   163 1
  172   165   159 1
  173   165   164 1
  174   166   165 1
  175   167   166 1
  176   168   167 1
  177   169   168 1
  178   170   169 1
  179   171   170 1
  180   172   171 1
  181   173   172 1
  182   174   153 1
  183   174   173 1
  184   175   159 1
  185   176   159 1
  186   177   164 1
  187   178   168 1
  188   179   172 1
  189   180   179 1
  190   181   179 1
  191   182   179 1
  192   183   178 1
  193   184   178 1
  194   185   178 1
  195   186   177 1
  196   187   177 1
  197   188   177 1
  198   189   176 1
  199   190   176 1
  200   191   176 1
  201   192   175 1
  202   193   175 1
  203   194   175 1
  204   195   160 1
  205   196   160 1
  206   197   158 1
  207   198   158 1
  208   199   158 1
  209   200   157 1
  210   201   157 1
  211   202   157 1
  212   203   156 1
  213   204   156 1
  214   205   156 1
  215   206   155 1
  216   207   155 1
  217   208   155 1
  218   209   154 1
  219   210   154 1
  220   211   154 1
  221   212   141 1
  222   213   146 1
  223   214   145 1
  224   215   142 1
  225   216   142 1
  226   217   174 1
  227   218   173 1
  228   219   171 1
  229   220   170 1
  230   221   169 1
  231   222   140 1
  232   223   167 1
  233   224   166 1
  234   225   165 1
  235   226   163 1
  236   227   161 1
  237   228   139 1
  238   229   139 1
  239   230   153 1
  240   231   152 1
  241   232   150 1
  242   233   149 1
  243   234   148 1
  244   235   162 1
  245   65    153 1
  246   65    174 1
@<TRIPOS>SUBSTRUCTURE
      1 CLA               1 ****               0 ****  **** 
      2 LUT             138 ****               0 ****  **** 
