@<TRIPOS>MOLECULE
Cpptraj generated mol2 file.
  235   246     2     0     0
SMALL
USER_CHARGES


@<TRIPOS>ATOM
      1 CAA        78.3697   58.7126   34.0335 a2         1 CLA     -0.055900
      2 CAB        78.6494   62.3552   43.0738 c8         1 CLA     -0.148500
      3 CAC        71.9705   57.8478   42.9725 a2         1 CLA     -0.012600
      4 CAD        74.1661   55.9415   35.2994 ck         1 CLA      0.398800
      5 NA         77.5708   58.9465   37.4738 ns         1 CLA     -0.225500
      6 CBA        79.4766   58.4711   32.8880 a2         1 CLA     -0.135000
      7 CBB        79.8789   62.6987   43.5289 c0         1 CLA     -0.395200
      8 CBC        71.8692   56.3286   42.8234 a3         1 CLA     -0.037700
      9 CBD        75.7605   56.4404   34.9615 a1         1 CLA     -0.053900
     10 NB         77.3914   60.4808   40.0466 nm         1 CLA     -0.295700
     11 OBD        73.4644   55.2460   34.6268 o2         1 CLA     -0.494600
     12 CGA        79.9850   57.0612   32.5110 c4         1 CLA      0.827000
     13 CGD        76.6893   55.2328   34.6708 c4         1 CLA      0.655300
     14 ND         74.7530   57.8537   38.1733 nm         1 CLA     -0.291600
     15 CED        77.2484   52.9062   35.2854 a3         1 CLA      0.005400
     16 CHA        76.1716   57.3452   36.1696 cs         1 CLA     -0.123800
     17 CHB        79.2797   60.3687   38.4718 aa         1 CLA     -0.291900
     18 CHC        76.0688   60.6448   42.1439 aa         1 CLA     -0.090400
     19 CHD        72.9738   57.7507   39.8587 aa         1 CLA     -0.052000
     20 CMA        80.8966   58.2282   36.6925 a3         1 CLA     -0.230700
     21 CMB        80.6797   62.0639   40.6489 a3         1 CLA     -0.180800
     22 CMC        73.8784   59.9435   44.3314 a3         1 CLA     -0.134000
     23 CMD        71.7469   55.7269   37.7559 a3         1 CLA     -0.141100
     24 C1         81.0631   55.0865   33.4015 a2         1 CLA      0.023000
     25 C1A        77.4082   58.0781   36.3936 ac         1 CLA     -0.015100
     26 C1B        78.6456   60.7819   39.6443 cr         1 CLA      0.054700
     27 C1C        74.9499   59.8809   41.9482 cn         1 CLA     -0.005600
     28 C1D        73.5334   57.4278   38.5531 ap         1 CLA     -0.047300
     29 O1A        79.7874   56.4960   31.4446 o2         1 CLA     -0.610800
     30 O1D        77.4527   55.1622   33.7250 o2         1 CLA     -0.558200
     31 C2         81.5628   54.6631   34.7510 c8         1 CLA     -0.325100
     32 C2A        78.6550   58.0646   35.4220 a1         1 CLA      0.098600
     33 C2B        79.3092   61.5183   40.7289 cb         1 CLA      0.088500
     34 C2C        73.8863   59.5131   42.8923 cb         1 CLA      0.053700
     35 C2D        72.9268   56.5119   37.6100 cb         1 CLA      0.058900
     36 O2A        80.7775   56.5374   33.5478 o1         1 CLA     -0.437200
     37 O2D        76.5808   54.2351   35.5720 o1         1 CLA     -0.357600
     38 C3         82.1768   53.5233   35.0606 c5         1 CLA      0.031200
     39 C3A        79.6723   58.9825   36.2520 a1         1 CLA      0.166800
     40 C3B        78.4205   61.6641   41.7684 cb         1 CLA      0.035000
     41 C3C        73.0825   58.5729   42.3034 cb         1 CLA     -0.089900
     42 C3D        73.8812   56.4375   36.5890 cb         1 CLA     -0.035900
     43 C4         81.4522   52.3902   35.6169 a3         1 CLA     -0.053300
     44 C4A        78.8105   59.4666   37.4749 ac         1 CLA      0.001800
     45 C4B        77.2199   60.9449   41.3900 cn         1 CLA     -0.020900
     46 C4C        73.5294   58.5261   40.9120 cr         1 CLA     -0.044400
     47 C4D        75.0098   57.2538   37.0216 c6         1 CLA     -0.046000
     48 C5         83.7209   53.4688   34.8069 a2         1 CLA     -0.070400
     49 C6         84.4551   54.7971   35.0861 a2         1 CLA      0.043900
     50 C7         84.4176   55.1680   36.5806 a2         1 CLA     -0.150000
     51 C8         84.6315   56.7394   36.7420 a1         1 CLA      0.064200
     52 C9         85.8328   57.1776   35.9544 a3         1 CLA     -0.259300
     53 C10        84.8600   57.0038   38.2579 a2         1 CLA     -0.071900
     54 C11        83.6471   56.7740   39.1662 a2         1 CLA      0.014500
     55 C12        83.9956   57.3073   40.5955 a2         1 CLA     -0.112100
     56 C13        82.7671   57.2295   41.5903 a1         1 CLA      0.089200
     57 C14        81.5688   58.1060   41.0720 a3         1 CLA     -0.239100
     58 C15        83.1090   57.4790   43.0996 a2         1 CLA     -0.102200
     59 C16        83.1719   58.8778   43.5734 a2         1 CLA      0.023900
     60 C17        83.4889   59.0173   45.1089 a2         1 CLA     -0.105700
     61 C18        83.6563   60.4832   45.6095 a1         1 CLA      0.206800
     62 C19        82.3037   61.3091   45.4952 a3         1 CLA     -0.280100
     63 C20        83.9914   60.4680   47.1674 a3         1 CLA     -0.280100
     64 NC         74.7127   59.2259   40.7456 nx         1 CLA     -0.309200
     65 MG         75.9968   59.2425   39.0443 mg         1 CLA      0.895000
     66 HMD3       70.9412   56.4408   37.6097 dc         1 CLA      0.064300
     67 HMD2       71.8536   55.0320   36.9349 dc         1 CLA      0.064300
     68 HMD1       71.8558   55.1842   38.7174 dc         1 CLA      0.064300
     69 HMC3       74.2306   59.0961   44.9808 dc         1 CLA      0.052100
     70 HMC2       74.4305   60.9032   44.4955 dc         1 CLA      0.052100
     71 HMC1       72.8644   60.1451   44.6738 dc         1 CLA      0.052100
     72 HMB3       80.8972   62.2900   39.6477 dc         1 CLA      0.063600
     73 HMB2       80.6966   63.0769   41.0487 dc         1 CLA      0.063600
     74 HMB1       81.4106   61.4453   40.9702 dc         1 CLA      0.063600
     75 HMA3       81.4410   58.8393   37.3774 dc         1 CLA      0.058300
     76 HMA2       80.5739   57.3159   37.2504 dc         1 CLA      0.058300
     77 HMA1       81.5724   58.0900   35.8814 dc         1 CLA      0.058300
     78 HED3       77.0199   52.2916   36.1539 dc         1 CLA      0.079300
     79 HED2       76.8426   52.3861   34.4346 dc         1 CLA      0.079300
     80 HED1       78.3264   53.0393   35.3576 dc         1 CLA      0.079300
     81 HBC3       72.8683   55.9489   42.7946 dc         1 CLA      0.016300
     82 HBC2       71.3370   55.7949   43.6421 dc         1 CLA      0.016300
     83 HBC1       71.4072   56.0009   41.9343 dc         1 CLA      0.016300
     84 HBB2       79.9023   63.0316   44.5750 da         1 CLA      0.183000
     85 HBB1       80.9021   62.6715   43.0965 da         1 CLA      0.183000
     86 HBA2       79.2120   59.0209   31.9860 dc         1 CLA      0.029400
     87 HBA1       80.4281   58.9164   33.1917 dc         1 CLA      0.029400
     88 HAC2       71.9601   57.9644   44.1092 dc         1 CLA      0.029300
     89 HAC1       71.0840   58.4097   42.7622 dc         1 CLA      0.029300
     90 HAA2       77.3601   58.4452   33.6031 dc         1 CLA      0.028700
     91 HAA1       78.0596   59.7783   34.1311 dc         1 CLA      0.028700
     92 H203       84.2835   61.5171   47.5197 dc         1 CLA      0.065600
     93 H202       83.1001   60.1949   47.8104 dc         1 CLA      0.065600
     94 H201       84.8785   59.8806   47.3794 dc         1 CLA      0.065600
     95 H193       82.3941   62.1957   46.1778 dc         1 CLA      0.065600
     96 H192       82.0996   61.5866   44.4859 dc         1 CLA      0.065600
     97 H191       81.3661   60.7645   45.9329 dc         1 CLA      0.065600
     98 H172       82.6468   58.5279   45.6063 dc         1 CLA      0.027600
     99 H171       84.3870   58.4188   45.3328 dc         1 CLA      0.027600
    100 H162       83.9737   59.3991   43.0277 dc         1 CLA      0.002900
    101 H161       82.2647   59.4557   43.3838 dc         1 CLA      0.002900
    102 H152       82.2717   57.0392   43.6073 dc         1 CLA      0.029100
    103 H151       84.0119   56.8979   43.3064 dc         1 CLA      0.029100
    104 H143       81.9949   59.1183   40.9757 dc         1 CLA      0.063600
    105 H142       81.2134   57.7248   40.1214 dc         1 CLA      0.063600
    106 H141       80.7340   58.0403   41.7583 dc         1 CLA      0.063600
    107 H122       84.8495   56.7038   40.9574 dc         1 CLA      0.032500
    108 H121       84.3575   58.3276   40.5789 dc         1 CLA      0.032500
    109 H112       82.8311   57.3956   38.8215 dc         1 CLA      0.006600
    110 H111       83.2300   55.7412   39.1657 dc         1 CLA      0.006600
    111 H102       85.6779   56.4015   38.7106 dc         1 CLA      0.024100
    112 H101       85.2132   58.0526   38.2957 dc         1 CLA      0.024100
    113 HHD        71.9779   57.3713   40.0880 da         1 CLA      0.174300
    114 HHC        76.0248   61.0519   43.1435 da         1 CLA      0.136800
    115 HHB        80.3730   60.6660   38.3956 da         1 CLA      0.138300
    116 HBD        75.6448   57.1123   34.0771 dc         1 CLA      0.107700
    117 HAB        77.8426   62.4680   43.7718 da         1 CLA      0.155200
    118 H93        86.0932   58.2070   36.2127 dc         1 CLA      0.069500
    119 H92        86.7223   56.5780   36.3186 dc         1 CLA      0.069500
    120 H91        85.6490   57.1001   34.9180 dc         1 CLA      0.069500
    121 H8         83.7523   57.2405   36.3763 dc         1 CLA      0.029300
    122 H72        83.5113   54.8672   37.0005 dc         1 CLA      0.044400
    123 H71        85.1762   54.7723   37.1585 dc         1 CLA      0.044400
    124 H62        85.4784   54.4812   34.8752 dc         1 CLA      0.015600
    125 H61        84.0514   55.5714   34.3610 dc         1 CLA      0.015600
    126 H52        84.1853   52.6475   35.3662 dc         1 CLA      0.033200
    127 H51        83.8499   53.2596   33.7532 dc         1 CLA      0.033200
    128 H43        80.3581   52.3827   35.3824 dc         1 CLA      0.037000
    129 H42        81.9496   51.5162   35.2660 dc         1 CLA      0.037000
    130 H41        81.5614   52.4500   36.7339 dc         1 CLA      0.037000
    131 H3A        79.8658   59.8430   35.6444 dc         1 CLA      0.041100
    132 H2A        79.0388   57.0501   35.2508 dc         1 CLA      0.083100
    133 H2         81.3906   55.3663   35.5323 da         1 CLA      0.180900
    134 H18        84.4364   60.9167   45.0694 dc         1 CLA     -0.003900
    135 H13        82.2481   56.2528   41.5491 dc         1 CLA      0.019700
    136 H12        80.2399   54.5233   33.0637 dc         1 CLA      0.120400
    137 H11        81.9014   54.9091   32.7083 dc         1 CLA      0.120400
    138 C1         68.3992   60.9064   50.0864 Z1         2 LUT      0.509236
    139 C2         67.0347   60.8142   50.7574 Z2         2 LUT     -0.434695
    140 C3         66.2213   62.0273   51.1393 Z3         2 LUT      0.437453
    141 O3         66.5755   62.4939   52.4459 S1         2 LUT     -0.547129
    142 C4         66.4366   63.1640   50.1760 Z4         2 LUT     -0.468603
    143 C5         67.3142   62.8598   48.9716 Z5         2 LUT      0.279246
    144 C6         68.2735   61.8969   48.8989 Z6         2 LUT     -0.305473
    145 C7         68.9750   61.5054   47.6594 Z7         2 LUT      0.069402
    146 C8         69.5450   62.3475   46.7705 Z8         2 LUT     -0.191631
    147 C9         70.2303   62.0989   45.4815 Z9         2 LUT      0.196698
    148 C10        71.1617   63.0252   45.0011 Y1         2 LUT     -0.208611
    149 C11        71.8773   62.9568   43.7387 Y2         2 LUT      0.030784
    150 C12        72.9900   63.6968   43.5331 Y3         2 LUT     -0.220316
    151 C13        73.9596   63.7057   42.3940 Y4         2 LUT      0.215937
    152 C14        75.0878   64.5156   42.4697 Y5         2 LUT     -0.185793
    153 C15        76.2496   64.4338   41.5143 Y6         2 LUT     -0.057835
    154 C16        68.9573   59.5428   49.8246 Y7         2 LUT     -0.405615
    155 C17        69.4895   61.5986   50.8864 Y7         2 LUT     -0.405615
    156 C18        66.7632   63.5374   47.7208 Y9         2 LUT     -0.369639
    157 C19        69.7940   60.8387   44.8161 W1         2 LUT     -0.333362
    158 C20        73.3260   63.0557   41.1578 W2         2 LUT     -0.323439
    159 C21        87.9922   65.2832   35.1671 Z1         2 LUT      0.406104
    160 C22        88.7426   64.9912   33.8916 Z2         2 LUT     -0.404965
    161 C23        88.7192   66.0556   32.8212 Z3         2 LUT      0.391255
    162 O23        89.4183   65.6173   31.6099 S1         2 LUT     -0.528210
    163 C24        87.3300   66.6535   32.5650 W6         2 LUT     -0.258361
    164 C25        86.3548   66.6636   33.5206 Z5         2 LUT      0.133546
    165 C26        86.5081   65.8817   34.8624 W8         2 LUT     -0.147008
    166 C27        85.6693   66.4772   35.9901 Z7         2 LUT      0.023843
    167 C28        84.3856   66.1148   36.3841 Z8         2 LUT     -0.216987
    168 C29        83.6614   66.5494   37.6062 Z9         2 LUT      0.206524
    169 C30        82.5216   65.8315   37.9344 Y1         2 LUT     -0.215556
    170 C31        81.7439   66.0903   39.0037 Y2         2 LUT      0.025142
    171 C32        80.5311   65.4977   39.2943 Y3         2 LUT     -0.212209
    172 C33        79.6395   65.7570   40.4068 Y4         2 LUT      0.240937
    173 C34        78.4198   65.1028   40.5923 Y5         2 LUT     -0.218862
    174 C35        77.3870   65.1929   41.5910 Y6         2 LUT     -0.023547
    175 C36        88.8641   66.3593   35.9192 Y7         2 LUT     -0.393485
    176 C37        88.0449   63.9734   35.9858 Y7         2 LUT     -0.393485
    177 C38        84.9209   67.0950   33.2254 Y9         2 LUT     -0.387526
    178 C39        84.0895   67.7536   38.3699 W1         2 LUT     -0.322618
    179 C40        79.9996   66.8405   41.4000 W2         2 LUT     -0.358472
    180 H403       80.3357   67.7505   40.9534 R7         2 LUT      0.097720
    181 H402       79.1719   67.1390   42.0947 R7         2 LUT      0.097720
    182 H401       80.8246   66.4338   42.0006 R7         2 LUT      0.097720
    183 H393       83.1879   68.4148   38.2943 R4         2 LUT      0.082505
    184 H392       84.2803   67.6433   39.4124 R4         2 LUT      0.082505
    185 H391       84.8817   68.3798   37.9148 R4         2 LUT      0.082505
    186 H383       84.2176   66.2970   33.1671 R1         2 LUT      0.104030
    187 H382       84.5867   67.8437   33.9580 R1         2 LUT      0.104030
    188 H381       84.8996   67.6531   32.2467 R1         2 LUT      0.104030
    189 H373       89.0292   63.8328   36.4403 T4         2 LUT      0.089537
    190 H372       87.2839   63.8570   36.8033 T4         2 LUT      0.089537
    191 H371       87.9322   63.0907   35.3257 T4         2 LUT      0.089537
    192 H363       89.7664   65.8810   36.3130 T4         2 LUT      0.089537
    193 H362       89.1797   67.1492   35.2129 T4         2 LUT      0.089537
    194 H361       88.2396   66.9056   36.7446 T4         2 LUT      0.089537
    195 H222       89.7746   64.7822   34.1623 U2         2 LUT      0.127376
    196 H221       88.3991   64.0256   33.4598 U2         2 LUT      0.127376
    197 H203       72.6913   63.7503   40.6980 R7         2 LUT      0.087068
    198 H202       74.1099   62.8674   40.3569 R7         2 LUT      0.087068
    199 H201       72.8308   62.0860   41.2775 R7         2 LUT      0.087068
    200 H193       70.0204   59.8789   45.3368 R4         2 LUT      0.089716
    201 H192       68.7265   60.8443   44.7639 R4         2 LUT      0.089716
    202 H191       70.1002   60.9090   43.7969 R4         2 LUT      0.089716
    203 H183       67.4068   64.4317   47.3818 R1         2 LUT      0.094572
    204 H182       66.7540   62.7407   46.9985 R1         2 LUT      0.094572
    205 H181       65.7472   63.8979   47.7691 R1         2 LUT      0.094572
    206 H173       70.4626   61.5505   50.3939 T4         2 LUT      0.093752
    207 H172       69.1181   62.6827   50.9670 T4         2 LUT      0.093752
    208 H171       69.5896   61.1320   51.8321 T4         2 LUT      0.093752
    209 H163       69.9457   59.5831   49.3416 T4         2 LUT      0.093752
    210 H162       68.9847   58.8983   50.7283 T4         2 LUT      0.093752
    211 H161       68.2979   59.0775   49.1661 T4         2 LUT      0.093752
    212 HO3        66.4744   61.8630   53.1357 Q1         2 LUT      0.300121
    213 H8         69.5961   63.4129   47.0172 U7         2 LUT      0.080784
    214 H7         69.1147   60.4913   47.4125 U6         2 LUT      0.042190
    215 H42        65.3867   63.3883   49.8633 U5         2 LUT      0.145166
    216 H41        66.8393   64.0145   50.7449 U5         2 LUT      0.145166
    217 H35        77.3544   65.8929   42.4103 T3         2 LUT      0.077919
    218 H34        78.2367   64.2518   39.9511 T2         2 LUT      0.073626
    219 H32        80.0987   64.7762   38.6408 T1         2 LUT      0.092510
    220 H31        82.0889   66.8113   39.6931 U9         2 LUT      0.070048
    221 H30        82.2471   65.0206   37.2319 U8         2 LUT      0.085442
    222 H3         65.0969   61.7414   51.2158 U3         2 LUT     -0.031596
    223 H28        84.0418   65.2714   35.7746 U7         2 LUT      0.084728
    224 H27        86.0974   67.1186   36.7529 U6         2 LUT      0.087291
    225 H26        85.9763   65.0530   34.4785 Q6         2 LUT      0.075325
    226 H24        87.2135   67.0035   31.5843 Q5         2 LUT      0.094482
    227 H23        89.3993   66.8632   33.1124 U3         2 LUT     -0.024869
    228 H22        66.3702   60.3559   50.0044 U2         2 LUT      0.127376
    229 H21        67.0536   60.1224   51.5856 U2         2 LUT      0.127376
    230 H15        76.2660   63.7976   40.6287 T3         2 LUT      0.093200
    231 H14        75.2799   65.1216   43.3795 T2         2 LUT      0.068865
    232 H12        73.2662   64.3822   44.3274 T1         2 LUT      0.095507
    233 H11        71.6322   62.1753   42.9457 U9         2 LUT      0.068930
    234 H10        71.4737   63.8523   45.7666 U8         2 LUT      0.083911
    235 H1         88.9368   65.0321   30.9929 Q1         2 LUT      0.297311
@<TRIPOS>BOND
    1     6     1 1
    2     7     2 1
    3     8     3 1
    4     9     4 1
    5    11     4 1
    6    12     6 1
    7    13     9 1
    8    16     9 1
    9    25     5 1
   10    25    16 1
   11    26    10 1
   12    26    17 1
   13    27    18 1
   14    28    14 1
   15    28    19 1
   16    29    12 1
   17    30    13 1
   18    31    24 1
   19    32     1 1
   20    32    25 1
   21    33    21 1
   22    33    26 1
   23    34    22 1
   24    34    27 1
   25    35    23 1
   26    35    28 1
   27    36    12 1
   28    36    24 1
   29    37    13 1
   30    37    15 1
   31    38    31 1
   32    39    20 1
   33    39    32 1
   34    40     2 1
   35    40    33 1
   36    41     3 1
   37    41    34 1
   38    42     4 1
   39    42    35 1
   40    43    38 1
   41    44     5 1
   42    44    17 1
   43    44    39 1
   44    45    10 1
   45    45    18 1
   46    45    40 1
   47    46    19 1
   48    46    41 1
   49    47    14 1
   50    47    16 1
   51    47    42 1
   52    48    38 1
   53    49    48 1
   54    50    49 1
   55    51    50 1
   56    52    51 1
   57    53    51 1
   58    54    53 1
   59    55    54 1
   60    56    55 1
   61    57    56 1
   62    58    56 1
   63    59    58 1
   64    60    59 1
   65    61    60 1
   66    62    61 1
   67    63    61 1
   68    64    27 1
   69    64    46 1
   70    65     5 1
   71    65    10 1
   72    65    64 1
   73    65    14 1
   74    66    23 1
   75    67    23 1
   76    68    23 1
   77    69    22 1
   78    70    22 1
   79    71    22 1
   80    72    21 1
   81    73    21 1
   82    74    21 1
   83    75    20 1
   84    76    20 1
   85    77    20 1
   86    78    15 1
   87    79    15 1
   88    80    15 1
   89    81     8 1
   90    82     8 1
   91    83     8 1
   92    84     7 1
   93    85     7 1
   94    86     6 1
   95    87     6 1
   96    88     3 1
   97    89     3 1
   98    90     1 1
   99    91     1 1
  100    92    63 1
  101    93    63 1
  102    94    63 1
  103    95    62 1
  104    96    62 1
  105    97    62 1
  106    98    60 1
  107    99    60 1
  108   100    59 1
  109   101    59 1
  110   102    58 1
  111   103    58 1
  112   104    57 1
  113   105    57 1
  114   106    57 1
  115   107    55 1
  116   108    55 1
  117   109    54 1
  118   110    54 1
  119   111    53 1
  120   112    53 1
  121   113    19 1
  122   114    18 1
  123   115    17 1
  124   116     9 1
  125   117     2 1
  126   118    52 1
  127   119    52 1
  128   120    52 1
  129   121    51 1
  130   122    50 1
  131   123    50 1
  132   124    49 1
  133   125    49 1
  134   126    48 1
  135   127    48 1
  136   128    43 1
  137   129    43 1
  138   130    43 1
  139   131    39 1
  140   132    32 1
  141   133    31 1
  142   134    61 1
  143   135    56 1
  144   136    24 1
  145   137    24 1
  146   139   138 1
  147   140   139 1
  148   141   140 1
  149   142   140 1
  150   143   142 1
  151   144   138 1
  152   144   143 1
  153   145   144 1
  154   146   145 1
  155   147   146 1
  156   148   147 1
  157   149   148 1
  158   150   149 1
  159   151   150 1
  160   152   151 1
  161   153   152 1
  162   154   138 1
  163   155   138 1
  164   156   143 1
  165   157   147 1
  166   158   151 1
  167   160   159 1
  168   161   160 1
  169   162   161 1
  170   163   161 1
  171   164   163 1
  172   165   159 1
  173   165   164 1
  174   166   165 1
  175   167   166 1
  176   168   167 1
  177   169   168 1
  178   170   169 1
  179   171   170 1
  180   172   171 1
  181   173   172 1
  182   174   153 1
  183   174   173 1
  184   175   159 1
  185   176   159 1
  186   177   164 1
  187   178   168 1
  188   179   172 1
  189   180   179 1
  190   181   179 1
  191   182   179 1
  192   183   178 1
  193   184   178 1
  194   185   178 1
  195   186   177 1
  196   187   177 1
  197   188   177 1
  198   189   176 1
  199   190   176 1
  200   191   176 1
  201   192   175 1
  202   193   175 1
  203   194   175 1
  204   195   160 1
  205   196   160 1
  206   197   158 1
  207   198   158 1
  208   199   158 1
  209   200   157 1
  210   201   157 1
  211   202   157 1
  212   203   156 1
  213   204   156 1
  214   205   156 1
  215   206   155 1
  216   207   155 1
  217   208   155 1
  218   209   154 1
  219   210   154 1
  220   211   154 1
  221   212   141 1
  222   213   146 1
  223   214   145 1
  224   215   142 1
  225   216   142 1
  226   217   174 1
  227   218   173 1
  228   219   171 1
  229   220   170 1
  230   221   169 1
  231   222   140 1
  232   223   167 1
  233   224   166 1
  234   225   165 1
  235   226   163 1
  236   227   161 1
  237   228   139 1
  238   229   139 1
  239   230   153 1
  240   231   152 1
  241   232   150 1
  242   233   149 1
  243   234   148 1
  244   235   162 1
  245   65    153 1
  246   65    174 1
@<TRIPOS>SUBSTRUCTURE
      1 CLA               1 ****               0 ****  **** 
      2 LUT             138 ****               0 ****  **** 
