@<TRIPOS>MOLECULE
Cpptraj generated mol2 file.
  235   246     2     0     0
SMALL
USER_CHARGES


@<TRIPOS>ATOM
      1 CAA        77.8917   58.5317   35.2336 a2         1 CLA     -0.055900
      2 CAB        78.1787   62.7092   43.9199 c8         1 CLA     -0.148500
      3 CAC        71.1673   59.0373   43.7110 a2         1 CLA     -0.012600
      4 CAD        73.9243   55.7400   36.8857 ck         1 CLA      0.398800
      5 NA         77.0702   59.1118   38.5759 ns         1 CLA     -0.225500
      6 CBA        79.1338   58.6592   34.2333 a2         1 CLA     -0.135000
      7 CBB        79.4249   62.8011   44.5276 c0         1 CLA     -0.395200
      8 CBC        70.9378   57.5590   43.9043 a3         1 CLA     -0.037700
      9 CBD        75.4766   56.1903   36.5702 a1         1 CLA     -0.053900
     10 NB         76.9911   60.8109   40.9522 nm         1 CLA     -0.295700
     11 OBD        73.3733   54.8483   36.2147 o2         1 CLA     -0.494600
     12 CGA        79.8829   57.4373   33.7050 c4         1 CLA      0.827000
     13 CGD        76.4283   54.9716   36.7915 c4         1 CLA      0.655300
     14 ND         74.2580   58.4401   39.2454 nm         1 CLA     -0.291600
     15 CED        76.6059   52.7945   37.9566 a3         1 CLA      0.005400
     16 CHA        75.7377   57.3717   37.4586 cs         1 CLA     -0.123800
     17 CHB        78.8546   60.6063   39.3111 aa         1 CLA     -0.291900
     18 CHC        75.7276   61.0770   43.1166 aa         1 CLA     -0.090400
     19 CHD        72.3924   58.4743   40.8496 aa         1 CLA     -0.052000
     20 CMA        80.5651   58.5638   37.7271 a3         1 CLA     -0.230700
     21 CMB        80.3972   62.3354   41.4478 a3         1 CLA     -0.180800
     22 CMC        73.4902   60.6866   45.2721 a3         1 CLA     -0.134000
     23 CMD        70.9893   56.4703   38.7519 a3         1 CLA     -0.141100
     24 C1         81.1386   55.5714   34.3392 a2         1 CLA      0.023000
     25 C1A        76.9168   58.1695   37.5971 ac         1 CLA     -0.015100
     26 C1B        78.2898   61.0090   40.6226 cr         1 CLA      0.054700
     27 C1C        74.5901   60.3441   42.9075 cn         1 CLA     -0.005600
     28 C1D        72.9626   58.0381   39.6620 ap         1 CLA     -0.047300
     29 O1A        80.2909   57.2371   32.5468 o2         1 CLA     -0.610800
     30 O1D        77.5822   54.7958   36.3468 o2         1 CLA     -0.558200
     31 C2         81.2926   54.6916   35.4865 c8         1 CLA     -0.325100
     32 C2A        78.1991   58.1042   36.7107 a1         1 CLA      0.098600
     33 C2B        78.9765   61.8417   41.6236 cb         1 CLA      0.088500
     34 C2C        73.5280   60.1214   43.8411 cb         1 CLA      0.053700
     35 C2D        72.3685   57.1032   38.7678 cb         1 CLA      0.058900
     36 O2A        80.1530   56.5752   34.7147 o1         1 CLA     -0.437200
     37 O2D        75.8775   54.0264   37.6140 o1         1 CLA     -0.357600
     38 C3         82.4151   54.2986   36.1844 c5         1 CLA      0.031200
     39 C3A        79.1772   59.1249   37.3579 a1         1 CLA      0.166800
     40 C3B        78.0656   62.0033   42.6496 cb         1 CLA      0.035000
     41 C3C        72.4815   59.5131   43.1392 cb         1 CLA     -0.089900
     42 C3D        73.4721   56.6612   37.9584 cb         1 CLA     -0.035900
     43 C4         83.0845   52.9745   35.9649 a3         1 CLA     -0.053300
     44 C4A        78.3046   59.6058   38.4892 ac         1 CLA      0.001800
     45 C4B        76.8475   61.3708   42.2349 cn         1 CLA     -0.020900
     46 C4C        72.9820   59.2063   41.8614 cr         1 CLA     -0.044400
     47 C4D        74.5255   57.5952   38.2392 c6         1 CLA     -0.046000
     48 C5         82.7845   55.0407   37.4814 a2         1 CLA     -0.070400
     49 C6         83.6164   56.3013   37.4399 a2         1 CLA      0.043900
     50 C7         83.8036   56.8863   38.8737 a2         1 CLA     -0.150000
     51 C8         84.4419   58.3060   38.8968 a1         1 CLA      0.064200
     52 C9         85.8707   58.4092   38.3086 a3         1 CLA     -0.259300
     53 C10        84.4622   59.0542   40.3381 a2         1 CLA     -0.071900
     54 C11        83.0969   59.2171   41.0328 a2         1 CLA      0.014500
     55 C12        83.1738   60.1381   42.2384 a2         1 CLA     -0.112100
     56 C13        84.1883   59.8591   43.3813 a1         1 CLA      0.089200
     57 C14        83.8393   58.6466   44.1315 a3         1 CLA     -0.239100
     58 C15        84.4190   61.0943   44.2474 a2         1 CLA     -0.102200
     59 C16        83.3725   61.8026   45.0360 a2         1 CLA      0.023900
     60 C17        83.7879   62.7689   46.0734 a2         1 CLA     -0.105700
     61 C18        82.5686   63.5894   46.6110 a1         1 CLA      0.206800
     62 C19        81.9005   62.7442   47.6660 a3         1 CLA     -0.280100
     63 C20        83.0789   64.8680   47.3770 a3         1 CLA     -0.280100
     64 NC         74.2545   59.8018   41.7633 nx         1 CLA     -0.309200
     65 MG         75.6005   59.7320   40.0488 mg         1 CLA      0.895000
     66 HMD3       70.3839   57.2336   39.2328 dc         1 CLA      0.064300
     67 HMD2       70.5589   56.2508   37.7554 dc         1 CLA      0.064300
     68 HMD1       70.9704   55.6240   39.3343 dc         1 CLA      0.064300
     69 HMC3       73.2298   61.7185   45.0144 dc         1 CLA      0.052100
     70 HMC2       72.6472   60.3767   45.9406 dc         1 CLA      0.052100
     71 HMC1       74.4479   60.6301   45.7625 dc         1 CLA      0.052100
     72 HMB3       80.9204   62.3084   42.4234 dc         1 CLA      0.063600
     73 HMB2       81.0201   61.7961   40.7900 dc         1 CLA      0.063600
     74 HMB1       80.2939   63.3046   40.9762 dc         1 CLA      0.063600
     75 HMA3       81.1758   59.2492   38.2846 dc         1 CLA      0.058300
     76 HMA2       80.4541   57.6931   38.4060 dc         1 CLA      0.058300
     77 HMA1       80.9660   58.2026   36.7550 dc         1 CLA      0.058300
     78 HED3       77.5092   53.1116   38.4615 dc         1 CLA      0.079300
     79 HED2       76.0236   52.2396   38.6957 dc         1 CLA      0.079300
     80 HED1       76.9641   52.1382   37.1494 dc         1 CLA      0.079300
     81 HBC3       70.0669   57.4141   44.5352 dc         1 CLA      0.016300
     82 HBC2       70.6341   57.0380   43.0144 dc         1 CLA      0.016300
     83 HBC1       71.8041   57.1145   44.4036 dc         1 CLA      0.016300
     84 HBB2       79.6414   63.4715   45.3985 da         1 CLA      0.183000
     85 HBB1       80.2647   62.1692   44.2386 da         1 CLA      0.183000
     86 HBA2       78.9125   59.1555   33.2606 dc         1 CLA      0.029400
     87 HBA1       79.8733   59.3289   34.5567 dc         1 CLA      0.029400
     88 HAC2       71.0416   59.3935   44.6997 dc         1 CLA      0.029300
     89 HAC1       70.3223   59.4805   43.1631 dc         1 CLA      0.029300
     90 HAA2       77.2663   57.7594   34.7730 dc         1 CLA      0.028700
     91 HAA1       77.2548   59.3868   35.2987 dc         1 CLA      0.028700
     92 H203       83.8514   64.6152   48.0706 dc         1 CLA      0.065600
     93 H202       83.3511   65.6621   46.6668 dc         1 CLA      0.065600
     94 H201       82.2983   65.3115   48.0279 dc         1 CLA      0.065600
     95 H193       82.5358   62.4841   48.4730 dc         1 CLA      0.065600
     96 H192       81.0507   63.1762   48.2927 dc         1 CLA      0.065600
     97 H191       81.4519   61.8517   47.2270 dc         1 CLA      0.065600
     98 H172       84.3651   62.2220   46.8815 dc         1 CLA      0.027600
     99 H171       84.4146   63.4691   45.4271 dc         1 CLA      0.027600
    100 H162       82.4747   62.1615   44.5809 dc         1 CLA      0.002900
    101 H161       83.0580   61.0494   45.6883 dc         1 CLA      0.002900
    102 H152       85.2852   60.8262   44.9266 dc         1 CLA      0.029100
    103 H151       84.7724   61.8394   43.5575 dc         1 CLA      0.029100
    104 H143       82.8397   58.7180   44.5319 dc         1 CLA      0.063600
    105 H142       83.7483   57.7435   43.4930 dc         1 CLA      0.063600
    106 H141       84.6236   58.3783   44.8420 dc         1 CLA      0.063600
    107 H122       83.4666   61.0815   41.7401 dc         1 CLA      0.032500
    108 H121       82.1042   60.2934   42.6151 dc         1 CLA      0.032500
    109 H112       82.3214   59.6039   40.4350 dc         1 CLA      0.006600
    110 H111       82.7452   58.2438   41.3936 dc         1 CLA      0.006600
    111 H102       85.0684   58.4243   41.0145 dc         1 CLA      0.024100
    112 H101       84.9250   60.0143   40.2232 dc         1 CLA      0.024100
    113 HHD        71.4067   58.0657   41.0500 da         1 CLA      0.174300
    114 HHC        75.8758   61.4986   44.0895 da         1 CLA      0.136800
    115 HHB        79.7784   61.0112   38.9959 da         1 CLA      0.138300
    116 HBD        75.4631   56.5056   35.4818 dc         1 CLA      0.107700
    117 HAB        77.3465   63.2127   44.3922 da         1 CLA      0.155200
    118 H93        86.5805   57.6870   38.7513 dc         1 CLA      0.069500
    119 H92        85.8351   58.2504   37.2355 dc         1 CLA      0.069500
    120 H91        86.1843   59.4144   38.4177 dc         1 CLA      0.069500
    121 H8         83.8511   58.9329   38.2854 dc         1 CLA      0.029300
    122 H72        82.8408   57.0832   39.3335 dc         1 CLA      0.044400
    123 H71        84.3461   56.2277   39.5612 dc         1 CLA      0.044400
    124 H62        84.6242   56.2616   36.9891 dc         1 CLA      0.015600
    125 H61        83.0258   57.0413   36.9137 dc         1 CLA      0.015600
    126 H52        81.9073   55.2849   37.9806 dc         1 CLA      0.033200
    127 H51        83.3145   54.3106   38.1132 dc         1 CLA      0.033200
    128 H43        82.8507   52.1512   36.6798 dc         1 CLA      0.037000
    129 H42        82.9116   52.8116   34.8759 dc         1 CLA      0.037000
    130 H41        84.1185   53.0564   36.2206 dc         1 CLA      0.037000
    131 H3A        79.3499   60.0356   36.9195 dc         1 CLA      0.041100
    132 H2A        78.6161   57.0907   36.8611 dc         1 CLA      0.083100
    133 H2         80.3934   54.1936   35.8383 da         1 CLA      0.180900
    134 H18        81.8303   63.8495   45.8295 dc         1 CLA     -0.003900
    135 H13        85.1904   59.7363   42.9125 dc         1 CLA      0.019700
    136 H12        80.9521   54.9627   33.4343 dc         1 CLA      0.120400
    137 H11        82.1855   55.9638   34.1963 dc         1 CLA      0.120400
    138 C1         67.1494   63.0716   50.7572 Z1         2 LUT      0.509236
    139 C2         67.0640   64.5645   51.2694 Z2         2 LUT     -0.434695
    140 C3         65.6150   65.1522   51.1981 Z3         2 LUT      0.437453
    141 O3         65.8490   66.4582   51.5329 S1         2 LUT     -0.547129
    142 C4         64.9689   64.9659   49.8407 Z4         2 LUT     -0.468603
    143 C5         65.8395   64.0554   48.8604 Z5         2 LUT      0.279246
    144 C6         66.6627   63.0773   49.2939 Z6         2 LUT     -0.305473
    145 C7         67.5795   62.4282   48.3414 Z7         2 LUT      0.069402
    146 C8         68.3604   63.0053   47.4634 Z8         2 LUT     -0.191631
    147 C9         69.0488   62.4861   46.3744 Z9         2 LUT      0.196698
    148 C10        69.9688   63.3219   45.6599 Y1         2 LUT     -0.208611
    149 C11        70.7459   63.1387   44.4681 Y2         2 LUT      0.030784
    150 C12        71.7758   64.0351   44.1630 Y3         2 LUT     -0.220316
    151 C13        72.7404   63.8478   43.1018 Y4         2 LUT      0.215937
    152 C14        73.9543   64.5860   43.1754 Y5         2 LUT     -0.185793
    153 C15        75.0909   64.6414   42.2960 Y6         2 LUT     -0.057835
    154 C16        66.1444   62.3068   51.6561 Y7         2 LUT     -0.405615
    155 C17        68.5923   62.4701   51.1466 Y7         2 LUT     -0.405615
    156 C18        65.6932   64.7057   47.5743 Y9         2 LUT     -0.369639
    157 C19        68.7083   61.0973   45.9712 W1         2 LUT     -0.333362
    158 C20        72.3441   63.0418   41.8741 W2         2 LUT     -0.323439
    159 C21        86.8921   66.1644   36.4002 Z1         2 LUT      0.406104
    160 C22        87.5888   65.4465   35.1925 Z2         2 LUT     -0.404965
    161 C23        87.4336   66.2904   33.8762 Z3         2 LUT      0.391255
    162 O23        88.2539   65.6875   32.8580 S1         2 LUT     -0.528210
    163 C24        86.0908   66.9074   33.6100 W6         2 LUT     -0.258361
    164 C25        85.1669   66.9992   34.5588 Z5         2 LUT      0.133546
    165 C26        85.3666   66.2532   35.8985 W8         2 LUT     -0.147008
    166 C27        84.4472   66.9109   36.9716 Z7         2 LUT      0.023843
    167 C28        83.2497   66.5253   37.4532 Z8         2 LUT     -0.216987
    168 C29        82.5239   67.0303   38.5815 Z9         2 LUT      0.206524
    169 C30        81.4249   66.2806   38.9729 Y1         2 LUT     -0.215556
    170 C31        80.5470   66.5267   40.1259 Y2         2 LUT      0.025142
    171 C32        79.2812   65.9862   40.3301 Y3         2 LUT     -0.212209
    172 C33        78.3763   66.0946   41.5416 Y4         2 LUT      0.240937
    173 C34        77.3010   65.3470   41.6343 Y5         2 LUT     -0.218862
    174 C35        76.2563   65.2542   42.6303 Y6         2 LUT     -0.023547
    175 C36        87.8099   67.3819   36.7103 Y7         2 LUT     -0.393485
    176 C37        86.9409   65.2149   37.6071 Y7         2 LUT     -0.393485
    177 C38        83.8541   67.6954   34.2609 Y9         2 LUT     -0.387526
    178 C39        82.9847   68.3137   39.2622 W1         2 LUT     -0.322618
    179 C40        78.8097   67.0774   42.5751 W2         2 LUT     -0.358472
    180 H403       79.7902   66.8486   42.9334 R7         2 LUT      0.097720
    181 H402       78.7021   68.0650   42.2173 R7         2 LUT      0.097720
    182 H401       78.1664   67.0602   43.4560 R7         2 LUT      0.097720
    183 H393       83.4382   69.0912   38.6041 R4         2 LUT      0.082505
    184 H392       82.2204   68.7986   39.8507 R4         2 LUT      0.082505
    185 H391       83.8087   68.1464   39.8995 R4         2 LUT      0.082505
    186 H383       82.9700   67.1650   34.6766 R1         2 LUT      0.104030
    187 H382       83.8812   68.6684   34.7299 R1         2 LUT      0.104030
    188 H381       83.6759   67.8382   33.1782 R1         2 LUT      0.104030
    189 H373       87.9470   64.9056   37.8007 T4         2 LUT      0.089537
    190 H372       86.5395   65.5310   38.5422 T4         2 LUT      0.089537
    191 H371       86.3518   64.2598   37.3572 T4         2 LUT      0.089537
    192 H363       87.7470   68.1093   35.8736 T4         2 LUT      0.089537
    193 H362       87.6203   68.0225   37.6501 T4         2 LUT      0.089537
    194 H361       88.8722   66.9628   36.7440 T4         2 LUT      0.089537
    195 H222       88.6841   65.3170   35.2930 U2         2 LUT      0.127376
    196 H221       87.1852   64.4523   34.9153 U2         2 LUT      0.127376
    197 H203       72.0009   62.0027   41.9606 R7         2 LUT      0.087068
    198 H202       71.5128   63.5867   41.3620 R7         2 LUT      0.087068
    199 H201       73.1861   62.9744   41.1941 R7         2 LUT      0.087068
    200 H193       68.9224   61.0535   44.8607 R4         2 LUT      0.089716
    201 H192       69.2514   60.2986   46.4030 R4         2 LUT      0.089716
    202 H191       67.6690   60.7393   46.0699 R4         2 LUT      0.089716
    203 H183       64.6246   64.7969   47.3434 R1         2 LUT      0.094572
    204 H182       66.1817   65.6822   47.5686 R1         2 LUT      0.094572
    205 H181       66.2220   64.1244   46.8190 R1         2 LUT      0.094572
    206 H173       68.7684   62.6889   52.2241 T4         2 LUT      0.093752
    207 H172       68.7241   61.4002   51.0119 T4         2 LUT      0.093752
    208 H171       69.3810   62.9478   50.5825 T4         2 LUT      0.093752
    209 H163       66.6544   61.3306   51.7131 T4         2 LUT      0.093752
    210 H162       66.0319   62.6327   52.6986 T4         2 LUT      0.093752
    211 H161       65.2118   62.1387   51.1530 T4         2 LUT      0.093752
    212 HO3        64.9983   66.8566   51.8946 Q1         2 LUT      0.300121
    213 H8         68.4186   64.0746   47.4571 U7         2 LUT      0.080784
    214 H7         67.3698   61.3713   48.2361 U6         2 LUT      0.042190
    215 H42        64.1428   64.3132   50.0765 U5         2 LUT      0.145166
    216 H41        64.5584   65.7939   49.3263 U5         2 LUT      0.145166
    217 H35        76.4392   65.8268   43.5574 T3         2 LUT      0.077919
    218 H34        77.1218   64.6696   40.7713 T2         2 LUT      0.073626
    219 H32        78.8358   65.2595   39.6305 T1         2 LUT      0.092510
    220 H31        80.9530   67.2323   40.8811 U9         2 LUT      0.070048
    221 H30        81.0480   65.3864   38.4474 U8         2 LUT      0.085442
    222 H3         64.9318   64.7417   51.9840 U3         2 LUT     -0.031596
    223 H28        82.8028   65.7168   36.8939 U7         2 LUT      0.084728
    224 H27        84.9300   67.8000   37.4688 U6         2 LUT      0.087291
    225 H26        85.0317   65.1986   35.8127 Q6         2 LUT      0.075325
    226 H24        85.9183   67.4548   32.6555 Q5         2 LUT      0.094482
    227 H23        87.9385   67.2111   34.1156 U3         2 LUT     -0.024869
    228 H22        67.4485   64.7430   52.2758 U2         2 LUT      0.127376
    229 H21        67.5752   65.1864   50.5459 U2         2 LUT      0.127376
    230 H15        74.8949   63.9939   41.4139 T3         2 LUT      0.093200
    231 H14        73.9853   65.1827   44.0516 T2         2 LUT      0.068865
    232 H12        71.9377   64.8195   44.8781 T1         2 LUT      0.095507
    233 H11        70.7041   62.2290   43.8538 U9         2 LUT      0.068930
    234 H10        70.0474   64.4210   45.9816 U8         2 LUT      0.083911
    235 H1         87.7316   65.0510   32.3155 Q1         2 LUT      0.297311
@<TRIPOS>BOND
    1     6     1 1
    2     7     2 1
    3     8     3 1
    4     9     4 1
    5    11     4 1
    6    12     6 1
    7    13     9 1
    8    16     9 1
    9    25     5 1
   10    25    16 1
   11    26    10 1
   12    26    17 1
   13    27    18 1
   14    28    14 1
   15    28    19 1
   16    29    12 1
   17    30    13 1
   18    31    24 1
   19    32     1 1
   20    32    25 1
   21    33    21 1
   22    33    26 1
   23    34    22 1
   24    34    27 1
   25    35    23 1
   26    35    28 1
   27    36    12 1
   28    36    24 1
   29    37    13 1
   30    37    15 1
   31    38    31 1
   32    39    20 1
   33    39    32 1
   34    40     2 1
   35    40    33 1
   36    41     3 1
   37    41    34 1
   38    42     4 1
   39    42    35 1
   40    43    38 1
   41    44     5 1
   42    44    17 1
   43    44    39 1
   44    45    10 1
   45    45    18 1
   46    45    40 1
   47    46    19 1
   48    46    41 1
   49    47    14 1
   50    47    16 1
   51    47    42 1
   52    48    38 1
   53    49    48 1
   54    50    49 1
   55    51    50 1
   56    52    51 1
   57    53    51 1
   58    54    53 1
   59    55    54 1
   60    56    55 1
   61    57    56 1
   62    58    56 1
   63    59    58 1
   64    60    59 1
   65    61    60 1
   66    62    61 1
   67    63    61 1
   68    64    27 1
   69    64    46 1
   70    65     5 1
   71    65    10 1
   72    65    64 1
   73    65    14 1
   74    66    23 1
   75    67    23 1
   76    68    23 1
   77    69    22 1
   78    70    22 1
   79    71    22 1
   80    72    21 1
   81    73    21 1
   82    74    21 1
   83    75    20 1
   84    76    20 1
   85    77    20 1
   86    78    15 1
   87    79    15 1
   88    80    15 1
   89    81     8 1
   90    82     8 1
   91    83     8 1
   92    84     7 1
   93    85     7 1
   94    86     6 1
   95    87     6 1
   96    88     3 1
   97    89     3 1
   98    90     1 1
   99    91     1 1
  100    92    63 1
  101    93    63 1
  102    94    63 1
  103    95    62 1
  104    96    62 1
  105    97    62 1
  106    98    60 1
  107    99    60 1
  108   100    59 1
  109   101    59 1
  110   102    58 1
  111   103    58 1
  112   104    57 1
  113   105    57 1
  114   106    57 1
  115   107    55 1
  116   108    55 1
  117   109    54 1
  118   110    54 1
  119   111    53 1
  120   112    53 1
  121   113    19 1
  122   114    18 1
  123   115    17 1
  124   116     9 1
  125   117     2 1
  126   118    52 1
  127   119    52 1
  128   120    52 1
  129   121    51 1
  130   122    50 1
  131   123    50 1
  132   124    49 1
  133   125    49 1
  134   126    48 1
  135   127    48 1
  136   128    43 1
  137   129    43 1
  138   130    43 1
  139   131    39 1
  140   132    32 1
  141   133    31 1
  142   134    61 1
  143   135    56 1
  144   136    24 1
  145   137    24 1
  146   139   138 1
  147   140   139 1
  148   141   140 1
  149   142   140 1
  150   143   142 1
  151   144   138 1
  152   144   143 1
  153   145   144 1
  154   146   145 1
  155   147   146 1
  156   148   147 1
  157   149   148 1
  158   150   149 1
  159   151   150 1
  160   152   151 1
  161   153   152 1
  162   154   138 1
  163   155   138 1
  164   156   143 1
  165   157   147 1
  166   158   151 1
  167   160   159 1
  168   161   160 1
  169   162   161 1
  170   163   161 1
  171   164   163 1
  172   165   159 1
  173   165   164 1
  174   166   165 1
  175   167   166 1
  176   168   167 1
  177   169   168 1
  178   170   169 1
  179   171   170 1
  180   172   171 1
  181   173   172 1
  182   174   153 1
  183   174   173 1
  184   175   159 1
  185   176   159 1
  186   177   164 1
  187   178   168 1
  188   179   172 1
  189   180   179 1
  190   181   179 1
  191   182   179 1
  192   183   178 1
  193   184   178 1
  194   185   178 1
  195   186   177 1
  196   187   177 1
  197   188   177 1
  198   189   176 1
  199   190   176 1
  200   191   176 1
  201   192   175 1
  202   193   175 1
  203   194   175 1
  204   195   160 1
  205   196   160 1
  206   197   158 1
  207   198   158 1
  208   199   158 1
  209   200   157 1
  210   201   157 1
  211   202   157 1
  212   203   156 1
  213   204   156 1
  214   205   156 1
  215   206   155 1
  216   207   155 1
  217   208   155 1
  218   209   154 1
  219   210   154 1
  220   211   154 1
  221   212   141 1
  222   213   146 1
  223   214   145 1
  224   215   142 1
  225   216   142 1
  226   217   174 1
  227   218   173 1
  228   219   171 1
  229   220   170 1
  230   221   169 1
  231   222   140 1
  232   223   167 1
  233   224   166 1
  234   225   165 1
  235   226   163 1
  236   227   161 1
  237   228   139 1
  238   229   139 1
  239   230   153 1
  240   231   152 1
  241   232   150 1
  242   233   149 1
  243   234   148 1
  244   235   162 1
  245   65    153 1
  246   65    174 1
@<TRIPOS>SUBSTRUCTURE
      1 CLA               1 ****               0 ****  **** 
      2 LUT             138 ****               0 ****  **** 
