@<TRIPOS>MOLECULE
Cpptraj generated mol2 file.
  235   246     2     0     0
SMALL
USER_CHARGES


@<TRIPOS>ATOM
      1 CAA        79.7309   59.2389   34.1994 a2         1 CLA     -0.055900
      2 CAB        78.9545   62.9185   43.1813 c8         1 CLA     -0.148500
      3 CAC        72.2801   58.4794   42.3346 a2         1 CLA     -0.012600
      4 CAD        75.6767   56.2445   35.0708 ck         1 CLA      0.398800
      5 NA         78.5701   59.4450   37.5101 ns         1 CLA     -0.225500
      6 CBA        80.9910   59.4631   33.3886 a2         1 CLA     -0.135000
      7 CBB        80.0717   62.9716   43.8735 c0         1 CLA     -0.395200
      8 CBC        72.3385   56.9778   42.4976 a3         1 CLA     -0.037700
      9 CBD        77.0977   57.0274   34.7304 a1         1 CLA     -0.053900
     10 NB         78.2239   60.9004   40.0566 nm         1 CLA     -0.295700
     11 OBD        75.1970   55.4938   34.2772 o2         1 CLA     -0.494600
     12 CGA        81.6737   58.1989   32.8628 c4         1 CLA      0.827000
     13 CGD        78.1381   55.9685   34.3888 c4         1 CLA      0.655300
     14 ND         75.8741   58.1818   38.0270 nm         1 CLA     -0.291600
     15 CED        79.8682   54.5140   35.0565 a3         1 CLA      0.005400
     16 CHA        77.3950   57.8349   36.0405 cs         1 CLA     -0.123800
     17 CHB        80.2361   60.7310   38.7315 aa         1 CLA     -0.291900
     18 CHC        76.8018   61.0331   42.0801 aa         1 CLA     -0.090400
     19 CHD        73.9758   57.9667   39.5435 aa         1 CLA     -0.052000
     20 CMA        82.0507   58.6211   37.2759 a3         1 CLA     -0.230700
     21 CMB        81.2148   63.0473   40.5908 a3         1 CLA     -0.180800
     22 CMC        74.3558   60.4050   44.0835 a3         1 CLA     -0.134000
     23 CMD        73.0014   55.8971   37.5264 a3         1 CLA     -0.141100
     24 C1         83.3743   56.5431   33.3723 a2         1 CLA      0.023000
     25 C1A        78.4956   58.6687   36.3510 ac         1 CLA     -0.015100
     26 C1B        79.4730   61.2945   39.7087 cr         1 CLA      0.054700
     27 C1C        75.6330   60.2240   41.7369 cn         1 CLA     -0.005600
     28 C1D        74.6926   57.6082   38.3725 ap         1 CLA     -0.047300
     29 O1A        81.6414   57.7585   31.7438 o2         1 CLA     -0.610800
     30 O1D        78.4929   55.8101   33.2690 o2         1 CLA     -0.558200
     31 C2         83.6323   55.5376   34.5365 c8         1 CLA     -0.325100
     32 C2A        79.8545   58.6820   35.6290 a1         1 CLA      0.098600
     33 C2B        80.0101   62.1360   40.8053 cb         1 CLA      0.088500
     34 C2C        74.4701   59.9057   42.6864 cb         1 CLA      0.053700
     35 C2D        74.2058   56.7850   37.3269 cb         1 CLA      0.058900
     36 O2A        82.4852   57.6289   33.8534 o1         1 CLA     -0.437200
     37 O2D        78.7327   55.3253   35.4950 o1         1 CLA     -0.357600
     38 C3         84.2803   54.3772   34.4911 c5         1 CLA      0.031200
     39 C3A        80.8316   59.4037   36.6670 a1         1 CLA      0.166800
     40 C3B        78.9639   62.2585   41.8554 cb         1 CLA      0.035000
     41 C3C        73.6202   59.0631   41.9096 cb         1 CLA     -0.089900
     42 C3D        75.2408   56.7313   36.3639 cb         1 CLA     -0.035900
     43 C4         83.6576   53.0882   34.2620 a3         1 CLA     -0.053300
     44 C4A        79.8099   59.9769   37.7018 ac         1 CLA      0.001800
     45 C4B        77.9132   61.4074   41.3230 cn         1 CLA     -0.020900
     46 C4C        74.3702   58.7327   40.6019 cr         1 CLA     -0.044400
     47 C4D        76.2089   57.6655   36.8125 c6         1 CLA     -0.046000
     48 C5         85.7562   54.2079   34.8785 a2         1 CLA     -0.070400
     49 C6         86.5455   55.4147   35.5402 a2         1 CLA      0.043900
     50 C7         86.1326   55.5571   37.0194 a2         1 CLA     -0.150000
     51 C8         86.5950   56.8669   37.6975 a1         1 CLA      0.064200
     52 C9         88.1049   57.1317   37.4894 a3         1 CLA     -0.259300
     53 C10        86.0758   56.9450   39.1191 a2         1 CLA     -0.071900
     54 C11        86.2831   58.2198   39.9544 a2         1 CLA      0.014500
     55 C12        85.7916   57.8672   41.3492 a2         1 CLA     -0.112100
     56 C13        86.0398   58.9678   42.5683 a1         1 CLA      0.089200
     57 C14        87.4719   58.7518   43.2768 a3         1 CLA     -0.239100
     58 C15        84.8960   58.8923   43.6369 a2         1 CLA     -0.102200
     59 C16        84.7324   59.9167   44.7464 a2         1 CLA      0.023900
     60 C17        84.3208   59.3355   46.1140 a2         1 CLA     -0.105700
     61 C18        84.7836   60.3072   47.3335 a1         1 CLA      0.206800
     62 C19        83.8249   61.5049   47.6685 a3         1 CLA     -0.280100
     63 C20        84.9129   59.5189   48.6712 a3         1 CLA     -0.280100
     64 NC         75.5414   59.5295   40.5445 nx         1 CLA     -0.309200
     65 MG         77.0553   59.6207   38.9533 mg         1 CLA      0.895000
     66 HMD3       72.6293   55.7237   38.5906 dc         1 CLA      0.064300
     67 HMD2       72.1953   56.3947   37.0271 dc         1 CLA      0.064300
     68 HMD1       73.2199   54.9629   37.1058 dc         1 CLA      0.064300
     69 HMC3       74.7424   61.4029   44.2116 dc         1 CLA      0.052100
     70 HMC2       73.3665   60.5065   44.4910 dc         1 CLA      0.052100
     71 HMC1       75.0238   59.8069   44.7138 dc         1 CLA      0.052100
     72 HMB3       81.3467   63.4502   39.5810 dc         1 CLA      0.063600
     73 HMB2       81.1691   63.8796   41.2380 dc         1 CLA      0.063600
     74 HMB1       82.1052   62.5094   40.7860 dc         1 CLA      0.063600
     75 HMA3       82.6896   59.2571   37.8748 dc         1 CLA      0.058300
     76 HMA2       81.6561   57.8371   37.9313 dc         1 CLA      0.058300
     77 HMA1       82.6162   58.1490   36.4970 dc         1 CLA      0.058300
     78 HED3       80.4833   54.1839   35.8981 dc         1 CLA      0.079300
     79 HED2       79.5907   53.5972   34.5663 dc         1 CLA      0.079300
     80 HED1       80.4158   55.0726   34.4218 dc         1 CLA      0.079300
     81 HBC3       71.4850   56.5813   43.0253 dc         1 CLA      0.016300
     82 HBC2       72.4428   56.4600   41.5071 dc         1 CLA      0.016300
     83 HBC1       73.1564   56.7630   43.1835 dc         1 CLA      0.016300
     84 HBB2       80.1530   63.5833   44.8092 da         1 CLA      0.183000
     85 HBB1       80.9809   62.4487   43.5795 da         1 CLA      0.183000
     86 HBA2       80.6613   59.9582   32.4429 dc         1 CLA      0.029400
     87 HBA1       81.6137   60.2197   33.9078 dc         1 CLA      0.029400
     88 HAC2       71.8984   58.9793   43.2212 dc         1 CLA      0.029300
     89 HAC1       71.5198   58.7089   41.5488 dc         1 CLA      0.029300
     90 HAA2       79.0217   58.5636   33.7010 dc         1 CLA      0.028700
     91 HAA1       79.1929   60.1727   34.3509 dc         1 CLA      0.028700
     92 H203       83.9412   59.4876   49.2533 dc         1 CLA      0.065600
     93 H202       85.3191   58.5631   48.3813 dc         1 CLA      0.065600
     94 H201       85.6128   59.9981   49.3357 dc         1 CLA      0.065600
     95 H193       83.9344   61.8980   48.5972 dc         1 CLA      0.065600
     96 H192       84.0142   62.2199   46.9243 dc         1 CLA      0.065600
     97 H191       82.8119   61.0842   47.7377 dc         1 CLA      0.065600
     98 H172       83.2559   59.0839   46.2584 dc         1 CLA      0.027600
     99 H171       84.7987   58.3597   46.1840 dc         1 CLA      0.027600
    100 H162       85.6786   60.3719   44.8994 dc         1 CLA      0.002900
    101 H161       83.9799   60.6251   44.4151 dc         1 CLA      0.002900
    102 H152       83.9976   58.7953   42.9894 dc         1 CLA      0.029100
    103 H151       85.1549   58.0130   44.2173 dc         1 CLA      0.029100
    104 H143       87.7980   59.4856   44.0327 dc         1 CLA      0.063600
    105 H142       87.4108   57.8520   43.8805 dc         1 CLA      0.063600
    106 H141       88.2326   58.5892   42.4943 dc         1 CLA      0.063600
    107 H122       84.7345   57.5316   41.2681 dc         1 CLA      0.032500
    108 H121       86.2317   57.0314   41.7454 dc         1 CLA      0.032500
    109 H112       87.2746   58.5581   39.9951 dc         1 CLA      0.006600
    110 H111       85.7726   59.0736   39.5804 dc         1 CLA      0.006600
    111 H102       85.0499   56.6547   39.1195 dc         1 CLA      0.024100
    112 H101       86.6583   56.1379   39.5725 dc         1 CLA      0.024100
    113 HHD        72.9450   57.5724   39.5687 da         1 CLA      0.174300
    114 HHC        76.6795   61.6080   43.1144 da         1 CLA      0.136800
    115 HHB        81.2319   61.1609   38.6817 da         1 CLA      0.138300
    116 HBD        77.0487   57.8349   34.0097 dc         1 CLA      0.107700
    117 HAB        78.0401   63.4739   43.5018 da         1 CLA      0.155200
    118 H93        88.3145   57.0524   36.4263 dc         1 CLA      0.069500
    119 H92        88.3853   58.1572   37.7357 dc         1 CLA      0.069500
    120 H91        88.8017   56.3879   37.8940 dc         1 CLA      0.069500
    121 H8         86.0642   57.5845   37.0694 dc         1 CLA      0.029300
    122 H72        85.0141   55.4723   37.0528 dc         1 CLA      0.044400
    123 H71        86.6343   54.8057   37.6123 dc         1 CLA      0.044400
    124 H62        87.6204   55.3222   35.6794 dc         1 CLA      0.015600
    125 H61        86.4042   56.2084   34.8677 dc         1 CLA      0.015600
    126 H52        85.6903   53.3293   35.5424 dc         1 CLA      0.033200
    127 H51        86.2723   53.9877   33.9306 dc         1 CLA      0.033200
    128 H43        82.6077   53.1549   34.0926 dc         1 CLA      0.037000
    129 H42        83.9995   52.6222   33.3460 dc         1 CLA      0.037000
    130 H41        83.7670   52.4146   35.0796 dc         1 CLA      0.037000
    131 H3A        81.1801   60.2525   36.1241 dc         1 CLA      0.041100
    132 H2A        80.0948   57.6531   35.5137 dc         1 CLA      0.083100
    133 H2         83.2986   55.8654   35.5199 da         1 CLA      0.180900
    134 H18        85.7350   60.8090   47.1587 dc         1 CLA     -0.003900
    135 H13        86.0267   59.9867   42.2806 dc         1 CLA      0.019700
    136 H12        83.0824   55.9698   32.4789 dc         1 CLA      0.120400
    137 H11        84.3761   56.9341   33.2377 dc         1 CLA      0.120400
    138 C1         68.7057   61.9332   49.8340 Z1         2 LUT      0.509236
    139 C2         67.3052   61.6913   50.4436 Z2         2 LUT     -0.434695
    140 C3         66.4443   62.9513   50.7980 Z3         2 LUT      0.437453
    141 O3         66.3315   63.2715   52.2163 S1         2 LUT     -0.547129
    142 C4         67.0335   64.2713   50.1196 Z4         2 LUT     -0.468603
    143 C5         67.6603   63.9549   48.8407 Z5         2 LUT      0.279246
    144 C6         68.5021   62.8909   48.6897 Z6         2 LUT     -0.305473
    145 C7         69.0158   62.3993   47.3733 Z7         2 LUT      0.069402
    146 C8         70.0013   62.9851   46.6796 Z8         2 LUT     -0.191631
    147 C9         70.6700   62.5853   45.4880 Z9         2 LUT      0.196698
    148 C10        71.7316   63.3183   44.9070 Y1         2 LUT     -0.208611
    149 C11        72.4990   63.1569   43.7287 Y2         2 LUT      0.030784
    150 C12        73.6338   63.8281   43.4251 Y3         2 LUT     -0.220316
    151 C13        74.3707   63.9297   42.1549 Y4         2 LUT      0.215937
    152 C14        75.4704   64.7648   42.1102 Y5         2 LUT     -0.185793
    153 C15        76.4767   64.7597   41.1032 Y6         2 LUT     -0.057835
    154 C16        69.3872   60.5206   49.5454 Y7         2 LUT     -0.405615
    155 C17        69.6255   62.5430   50.9808 Y7         2 LUT     -0.405615
    156 C18        67.1818   64.8443   47.7833 Y9         2 LUT     -0.369639
    157 C19        70.1831   61.4131   44.6911 W1         2 LUT     -0.333362
    158 C20        74.0267   63.0437   40.9603 W2         2 LUT     -0.323439
    159 C21        88.4709   66.3344   35.5095 Z1         2 LUT      0.406104
    160 C22        89.1262   65.7889   34.1468 Z2         2 LUT     -0.404965
    161 C23        89.0166   66.6817   32.8860 Z3         2 LUT      0.391255
    162 O23        89.7136   65.9937   31.8034 S1         2 LUT     -0.528210
    163 C24        87.7369   67.3311   32.7967 W6         2 LUT     -0.258361
    164 C25        86.7322   67.3461   33.7004 Z5         2 LUT      0.133546
    165 C26        86.8926   66.6656   35.0382 W8         2 LUT     -0.147008
    166 C27        86.1991   67.1760   36.2740 Z7         2 LUT      0.023843
    167 C28        84.8514   67.0293   36.6187 Z8         2 LUT     -0.216987
    168 C29        84.2062   67.3216   37.9552 Z9         2 LUT      0.206524
    169 C30        83.0273   66.6673   38.2502 Y1         2 LUT     -0.215556
    170 C31        82.1115   66.6215   39.3419 Y2         2 LUT      0.025142
    171 C32        80.9578   66.0187   39.4947 Y3         2 LUT     -0.212209
    172 C33        80.0500   66.0000   40.6250 Y4         2 LUT      0.240937
    173 C34        78.7416   65.5794   40.4517 Y5         2 LUT     -0.218862
    174 C35        77.5690   65.5269   41.3715 Y6         2 LUT     -0.023547
    175 C36        89.3930   67.5542   36.0361 Y7         2 LUT     -0.393485
    176 C37        88.4939   65.1982   36.5777 Y7         2 LUT     -0.393485
    177 C38        85.3390   67.9945   33.3422 Y9         2 LUT     -0.387526
    178 C39        84.9589   68.2007   39.0013 W1         2 LUT     -0.322618
    179 C40        80.4859   66.5535   41.9799 W2         2 LUT     -0.358472
    180 H403       80.5352   67.6847   41.9336 R7         2 LUT      0.097720
    181 H402       79.6898   66.3125   42.6746 R7         2 LUT      0.097720
    182 H401       81.4853   66.3177   42.3216 R7         2 LUT      0.097720
    183 H393       84.1564   68.9089   39.3480 R4         2 LUT      0.082505
    184 H392       85.2402   67.6187   39.9058 R4         2 LUT      0.082505
    185 H391       85.6422   68.9079   38.5604 R4         2 LUT      0.082505
    186 H383       84.9434   68.7357   33.9459 R1         2 LUT      0.104030
    187 H382       85.4159   68.4418   32.3262 R1         2 LUT      0.104030
    188 H381       84.5553   67.2410   33.2747 R1         2 LUT      0.104030
    189 H373       87.9205   64.3114   36.1554 T4         2 LUT      0.089537
    190 H372       89.4919   64.8112   36.9413 T4         2 LUT      0.089537
    191 H371       88.0321   65.5525   37.5314 T4         2 LUT      0.089537
    192 H363       90.4471   67.4062   36.1269 T4         2 LUT      0.089537
    193 H362       89.2273   68.4456   35.4352 T4         2 LUT      0.089537
    194 H361       89.1041   67.7312   37.0597 T4         2 LUT      0.089537
    195 H222       90.1793   65.4783   34.3397 U2         2 LUT      0.127376
    196 H221       88.6024   64.8079   33.8615 U2         2 LUT      0.127376
    197 H203       74.9257   62.7122   40.4564 R7         2 LUT      0.087068
    198 H202       73.4428   62.0842   41.1822 R7         2 LUT      0.087068
    199 H201       73.4437   63.5856   40.1925 R7         2 LUT      0.087068
    200 H193       70.8165   60.5876   44.9290 R4         2 LUT      0.089716
    201 H192       69.1595   61.1807   44.8910 R4         2 LUT      0.089716
    202 H191       70.3081   61.5694   43.5766 R4         2 LUT      0.089716
    203 H183       67.1653   66.0063   47.9369 R1         2 LUT      0.094572
    204 H182       67.6990   64.7645   46.8350 R1         2 LUT      0.094572
    205 H181       66.0798   64.4874   47.7346 R1         2 LUT      0.094572
    206 H173       70.6937   62.7681   50.6187 T4         2 LUT      0.093752
    207 H172       69.1350   63.4380   51.5179 T4         2 LUT      0.093752
    208 H171       69.6387   61.7741   51.7327 T4         2 LUT      0.093752
    209 H163       68.6614   59.9284   48.9240 T4         2 LUT      0.093752
    210 H162       70.3424   60.5824   49.0104 T4         2 LUT      0.093752
    211 H161       69.4315   59.9384   50.4902 T4         2 LUT      0.093752
    212 HO3        66.0423   62.5362   52.7808 Q1         2 LUT      0.300121
    213 H8         70.4360   63.8689   47.0905 U7         2 LUT      0.080784
    214 H7         68.7050   61.4234   46.9614 U6         2 LUT      0.042190
    215 H42        66.3295   65.0828   49.9448 U5         2 LUT      0.145166
    216 H41        67.6806   64.8684   50.6662 U5         2 LUT      0.145166
    217 H35        77.6322   65.9794   42.3350 T3         2 LUT      0.077919
    218 H34        78.4895   65.2467   39.4206 T2         2 LUT      0.073626
    219 H32        80.4708   65.5807   38.5948 T1         2 LUT      0.092510
    220 H31        82.3621   67.1874   40.2029 U9         2 LUT      0.070048
    221 H30        82.6266   66.0675   37.4448 U8         2 LUT      0.085442
    222 H3         65.4735   62.9462   50.3735 U3         2 LUT     -0.031596
    223 H28        84.2476   66.5708   35.8584 U7         2 LUT      0.084728
    224 H27        86.7951   67.6227   37.0455 U6         2 LUT      0.087291
    225 H26        86.4858   65.6730   34.9698 Q6         2 LUT      0.075325
    226 H24        87.5306   67.8991   31.9243 Q5         2 LUT      0.094482
    227 H23        89.7437   67.4803   33.1698 U3         2 LUT     -0.024869
    228 H22        66.6852   61.0997   49.7370 U2         2 LUT      0.127376
    229 H21        67.4613   61.0484   51.3675 U2         2 LUT      0.127376
    230 H15        76.3975   64.2902   40.1757 T3         2 LUT      0.093200
    231 H14        75.8487   65.1060   43.0988 T2         2 LUT      0.068865
    232 H12        73.9633   64.4774   44.1672 T1         2 LUT      0.095507
    233 H11        72.1370   62.4577   42.9662 U9         2 LUT      0.068930
    234 H10        72.0201   64.2757   45.4477 U8         2 LUT      0.083911
    235 H1         89.0461   65.6050   31.2005 Q1         2 LUT      0.297311
@<TRIPOS>BOND
    1     6     1 1
    2     7     2 1
    3     8     3 1
    4     9     4 1
    5    11     4 1
    6    12     6 1
    7    13     9 1
    8    16     9 1
    9    25     5 1
   10    25    16 1
   11    26    10 1
   12    26    17 1
   13    27    18 1
   14    28    14 1
   15    28    19 1
   16    29    12 1
   17    30    13 1
   18    31    24 1
   19    32     1 1
   20    32    25 1
   21    33    21 1
   22    33    26 1
   23    34    22 1
   24    34    27 1
   25    35    23 1
   26    35    28 1
   27    36    12 1
   28    36    24 1
   29    37    13 1
   30    37    15 1
   31    38    31 1
   32    39    20 1
   33    39    32 1
   34    40     2 1
   35    40    33 1
   36    41     3 1
   37    41    34 1
   38    42     4 1
   39    42    35 1
   40    43    38 1
   41    44     5 1
   42    44    17 1
   43    44    39 1
   44    45    10 1
   45    45    18 1
   46    45    40 1
   47    46    19 1
   48    46    41 1
   49    47    14 1
   50    47    16 1
   51    47    42 1
   52    48    38 1
   53    49    48 1
   54    50    49 1
   55    51    50 1
   56    52    51 1
   57    53    51 1
   58    54    53 1
   59    55    54 1
   60    56    55 1
   61    57    56 1
   62    58    56 1
   63    59    58 1
   64    60    59 1
   65    61    60 1
   66    62    61 1
   67    63    61 1
   68    64    27 1
   69    64    46 1
   70    65     5 1
   71    65    10 1
   72    65    64 1
   73    65    14 1
   74    66    23 1
   75    67    23 1
   76    68    23 1
   77    69    22 1
   78    70    22 1
   79    71    22 1
   80    72    21 1
   81    73    21 1
   82    74    21 1
   83    75    20 1
   84    76    20 1
   85    77    20 1
   86    78    15 1
   87    79    15 1
   88    80    15 1
   89    81     8 1
   90    82     8 1
   91    83     8 1
   92    84     7 1
   93    85     7 1
   94    86     6 1
   95    87     6 1
   96    88     3 1
   97    89     3 1
   98    90     1 1
   99    91     1 1
  100    92    63 1
  101    93    63 1
  102    94    63 1
  103    95    62 1
  104    96    62 1
  105    97    62 1
  106    98    60 1
  107    99    60 1
  108   100    59 1
  109   101    59 1
  110   102    58 1
  111   103    58 1
  112   104    57 1
  113   105    57 1
  114   106    57 1
  115   107    55 1
  116   108    55 1
  117   109    54 1
  118   110    54 1
  119   111    53 1
  120   112    53 1
  121   113    19 1
  122   114    18 1
  123   115    17 1
  124   116     9 1
  125   117     2 1
  126   118    52 1
  127   119    52 1
  128   120    52 1
  129   121    51 1
  130   122    50 1
  131   123    50 1
  132   124    49 1
  133   125    49 1
  134   126    48 1
  135   127    48 1
  136   128    43 1
  137   129    43 1
  138   130    43 1
  139   131    39 1
  140   132    32 1
  141   133    31 1
  142   134    61 1
  143   135    56 1
  144   136    24 1
  145   137    24 1
  146   139   138 1
  147   140   139 1
  148   141   140 1
  149   142   140 1
  150   143   142 1
  151   144   138 1
  152   144   143 1
  153   145   144 1
  154   146   145 1
  155   147   146 1
  156   148   147 1
  157   149   148 1
  158   150   149 1
  159   151   150 1
  160   152   151 1
  161   153   152 1
  162   154   138 1
  163   155   138 1
  164   156   143 1
  165   157   147 1
  166   158   151 1
  167   160   159 1
  168   161   160 1
  169   162   161 1
  170   163   161 1
  171   164   163 1
  172   165   159 1
  173   165   164 1
  174   166   165 1
  175   167   166 1
  176   168   167 1
  177   169   168 1
  178   170   169 1
  179   171   170 1
  180   172   171 1
  181   173   172 1
  182   174   153 1
  183   174   173 1
  184   175   159 1
  185   176   159 1
  186   177   164 1
  187   178   168 1
  188   179   172 1
  189   180   179 1
  190   181   179 1
  191   182   179 1
  192   183   178 1
  193   184   178 1
  194   185   178 1
  195   186   177 1
  196   187   177 1
  197   188   177 1
  198   189   176 1
  199   190   176 1
  200   191   176 1
  201   192   175 1
  202   193   175 1
  203   194   175 1
  204   195   160 1
  205   196   160 1
  206   197   158 1
  207   198   158 1
  208   199   158 1
  209   200   157 1
  210   201   157 1
  211   202   157 1
  212   203   156 1
  213   204   156 1
  214   205   156 1
  215   206   155 1
  216   207   155 1
  217   208   155 1
  218   209   154 1
  219   210   154 1
  220   211   154 1
  221   212   141 1
  222   213   146 1
  223   214   145 1
  224   215   142 1
  225   216   142 1
  226   217   174 1
  227   218   173 1
  228   219   171 1
  229   220   170 1
  230   221   169 1
  231   222   140 1
  232   223   167 1
  233   224   166 1
  234   225   165 1
  235   226   163 1
  236   227   161 1
  237   228   139 1
  238   229   139 1
  239   230   153 1
  240   231   152 1
  241   232   150 1
  242   233   149 1
  243   234   148 1
  244   235   162 1
  245   65    153 1
  246   65    174 1
@<TRIPOS>SUBSTRUCTURE
      1 CLA               1 ****               0 ****  **** 
      2 LUT             138 ****               0 ****  **** 
