@<TRIPOS>MOLECULE
Cpptraj generated mol2 file.
  235   246     2     0     0
SMALL
USER_CHARGES


@<TRIPOS>ATOM
      1 CAA        80.3087   58.5649   33.6367 a2         1 CLA     -0.055900
      2 CAB        79.2454   62.1923   42.5589 c8         1 CLA     -0.148500
      3 CAC        72.6154   57.9500   41.4807 a2         1 CLA     -0.012600
      4 CAD        76.1302   55.6976   34.4695 ck         1 CLA      0.398800
      5 NA         79.0081   58.7391   36.9690 ns         1 CLA     -0.225500
      6 CBA        81.5512   58.4404   32.7964 a2         1 CLA     -0.135000
      7 CBB        80.2977   62.1284   43.4182 c0         1 CLA     -0.395200
      8 CBC        72.6926   56.5218   42.2002 a3         1 CLA     -0.037700
      9 CBD        77.4970   56.3838   34.2396 a1         1 CLA     -0.053900
     10 NB         78.5874   60.2919   39.4949 nm         1 CLA     -0.295700
     11 OBD        75.7154   54.8293   33.6938 o2         1 CLA     -0.494600
     12 CGA        82.0729   57.0684   32.3991 c4         1 CLA      0.827000
     13 CGD        78.5719   55.3005   34.0541 c4         1 CLA      0.655300
     14 ND         76.2018   57.7922   37.2942 nm         1 CLA     -0.291600
     15 CED        79.5281   53.2597   34.8917 a3         1 CLA      0.005400
     16 CHA        77.8161   57.2293   35.4355 cs         1 CLA     -0.123800
     17 CHB        80.6299   60.1795   38.1231 aa         1 CLA     -0.291900
     18 CHC        76.9527   60.4629   41.4521 aa         1 CLA     -0.090400
     19 CHD        74.1404   57.7528   38.6091 aa         1 CLA     -0.052000
     20 CMA        82.6150   58.4574   36.4448 a3         1 CLA     -0.230700
     21 CMB        81.6242   62.3107   40.2644 a3         1 CLA     -0.180800
     22 CMC        74.6044   59.7145   43.2933 a3         1 CLA     -0.134000
     23 CMD        73.1512   55.9648   36.1777 a3         1 CLA     -0.141100
     24 C1         83.0066   55.1359   33.3724 a2         1 CLA      0.023000
     25 C1A        79.0023   57.9853   35.8313 ac         1 CLA     -0.015100
     26 C1B        79.8837   60.6695   39.2119 cr         1 CLA      0.054700
     27 C1C        75.9394   59.6642   41.0331 cn         1 CLA     -0.005600
     28 C1D        74.9232   57.3530   37.4722 ap         1 CLA     -0.047300
     29 O1A        81.9897   56.5033   31.3690 o2         1 CLA     -0.610800
     30 O1D        79.3016   55.3395   33.0771 o2         1 CLA     -0.558200
     31 C2         83.6451   54.7906   34.7091 c8         1 CLA     -0.325100
     32 C2A        80.3738   58.0426   35.0863 a1         1 CLA      0.098600
     33 C2B        80.2722   61.6131   40.1877 cb         1 CLA      0.088500
     34 C2C        74.8063   59.4089   41.8268 cb         1 CLA      0.053700
     35 C2D        74.5311   56.4407   36.4100 cb         1 CLA      0.058900
     36 O2A        82.6366   56.5362   33.4644 o1         1 CLA     -0.437200
     37 O2D        78.6034   54.3911   35.0861 o1         1 CLA     -0.357600
     38 C3         84.7620   54.0756   34.9083 c5         1 CLA      0.031200
     39 C3A        81.2319   58.9538   35.9456 a1         1 CLA      0.166800
     40 C3B        79.2346   61.6168   41.1674 cb         1 CLA      0.035000
     41 C3C        73.9453   58.4979   41.1032 cb         1 CLA     -0.089900
     42 C3D        75.6227   56.3376   35.6466 cb         1 CLA     -0.035900
     43 C4         84.8401   52.6042   35.4667 a3         1 CLA     -0.053300
     44 C4A        80.2321   59.3177   37.1505 ac         1 CLA      0.001800
     45 C4B        78.1686   60.7960   40.7103 cn         1 CLA     -0.020900
     46 C4C        74.5407   58.4476   39.7550 cr         1 CLA     -0.044400
     47 C4D        76.6510   57.2313   36.1384 c6         1 CLA     -0.046000
     48 C5         86.0744   54.7479   34.8467 a2         1 CLA     -0.070400
     49 C6         86.2663   55.9812   35.7971 a2         1 CLA      0.043900
     50 C7         86.4047   55.6019   37.3306 a2         1 CLA     -0.150000
     51 C8         86.6135   56.8821   38.3116 a1         1 CLA      0.064200
     52 C9         87.9079   57.6039   38.0063 a3         1 CLA     -0.259300
     53 C10        86.5769   56.4089   39.8096 a2         1 CLA     -0.071900
     54 C11        86.9713   57.4807   40.8809 a2         1 CLA      0.014500
     55 C12        86.8483   56.8956   42.2886 a2         1 CLA     -0.112100
     56 C13        87.3746   57.7834   43.4093 a1         1 CLA      0.089200
     57 C14        88.9058   58.1370   43.2999 a3         1 CLA     -0.239100
     58 C15        87.0707   57.1452   44.7421 a2         1 CLA     -0.102200
     59 C16        85.6137   56.9485   45.1562 a2         1 CLA      0.023900
     60 C17        84.9512   58.2796   45.4465 a2         1 CLA     -0.105700
     61 C18        83.3776   58.3638   45.5989 a1         1 CLA      0.206800
     62 C19        83.0669   57.6993   46.9266 a3         1 CLA     -0.280100
     63 C20        82.8865   59.8367   45.6209 a3         1 CLA     -0.280100
     64 NC         75.7633   59.0585   39.8475 nx         1 CLA     -0.309200
     65 MG         77.3270   59.0537   38.3035 mg         1 CLA      0.895000
     66 HMD3       72.4493   56.7900   36.1486 dc         1 CLA      0.064300
     67 HMD2       73.0613   55.3596   35.2555 dc         1 CLA      0.064300
     68 HMD1       72.8836   55.2568   36.9502 dc         1 CLA      0.064300
     69 HMC3       75.6165   59.6727   43.6768 dc         1 CLA      0.052100
     70 HMC2       74.3526   60.7915   43.4520 dc         1 CLA      0.052100
     71 HMC1       73.9064   59.0764   43.7827 dc         1 CLA      0.052100
     72 HMB3       81.7873   63.0932   39.4728 dc         1 CLA      0.063600
     73 HMB2       81.6310   62.9201   41.1158 dc         1 CLA      0.063600
     74 HMB1       82.4313   61.5729   40.2990 dc         1 CLA      0.063600
     75 HMA3       82.4814   57.7347   37.2387 dc         1 CLA      0.058300
     76 HMA2       83.1910   58.0642   35.5615 dc         1 CLA      0.058300
     77 HMA1       83.2179   59.1408   36.9536 dc         1 CLA      0.058300
     78 HED3       79.4202   52.4069   35.6250 dc         1 CLA      0.079300
     79 HED2       79.3998   52.8092   33.9222 dc         1 CLA      0.079300
     80 HED1       80.5040   53.7336   35.0038 dc         1 CLA      0.079300
     81 HBC3       71.7142   56.1171   42.3899 dc         1 CLA      0.016300
     82 HBC2       73.1955   55.8364   41.5350 dc         1 CLA      0.016300
     83 HBC1       73.3659   56.4169   43.0910 dc         1 CLA      0.016300
     84 HBB2       80.3514   62.7042   44.3341 da         1 CLA      0.183000
     85 HBB1       81.2498   61.6747   43.1482 da         1 CLA      0.183000
     86 HBA2       81.3578   59.0493   31.8771 dc         1 CLA      0.029400
     87 HBA1       82.3385   58.9284   33.4262 dc         1 CLA      0.029400
     88 HAC2       72.1469   58.7274   42.1495 dc         1 CLA      0.029300
     89 HAC1       72.0121   57.8719   40.5971 dc         1 CLA      0.029300
     90 HAA2       79.4832   58.0629   33.1146 dc         1 CLA      0.028700
     91 HAA1       80.2109   59.6143   33.5903 dc         1 CLA      0.028700
     92 H203       81.9072   59.8769   46.0525 dc         1 CLA      0.065600
     93 H202       83.5017   60.3510   46.3478 dc         1 CLA      0.065600
     94 H201       83.0260   60.2829   44.6759 dc         1 CLA      0.065600
     95 H193       83.6550   58.1633   47.7141 dc         1 CLA      0.065600
     96 H192       82.0654   57.8567   47.2172 dc         1 CLA      0.065600
     97 H191       83.3318   56.6663   46.7541 dc         1 CLA      0.065600
     98 H172       85.4613   58.7951   46.1968 dc         1 CLA      0.027600
     99 H171       85.2471   58.8435   44.5245 dc         1 CLA      0.027600
    100 H162       85.0336   56.4097   44.4590 dc         1 CLA      0.002900
    101 H161       85.5985   56.2342   46.0347 dc         1 CLA      0.002900
    102 H152       87.5110   56.1837   44.7449 dc         1 CLA      0.029100
    103 H151       87.5870   57.6929   45.4991 dc         1 CLA      0.029100
    104 H143       89.0743   58.6290   44.2676 dc         1 CLA      0.063600
    105 H142       89.4725   57.1798   43.4366 dc         1 CLA      0.063600
    106 H141       89.2464   58.7744   42.5691 dc         1 CLA      0.063600
    107 H122       85.7744   56.6884   42.3746 dc         1 CLA      0.032500
    108 H121       87.4271   55.9229   42.3636 dc         1 CLA      0.032500
    109 H112       87.9561   57.9001   40.7104 dc         1 CLA      0.006600
    110 H111       86.3027   58.2945   40.7036 dc         1 CLA      0.006600
    111 H102       85.6174   56.0011   40.0649 dc         1 CLA      0.024100
    112 H101       87.2844   55.6028   39.9269 dc         1 CLA      0.024100
    113 HHD        73.1225   57.3482   38.6939 da         1 CLA      0.174300
    114 HHC        76.7663   61.0480   42.3291 da         1 CLA      0.136800
    115 HHB        81.7405   60.4553   38.1388 da         1 CLA      0.138300
    116 HBD        77.5124   57.0366   33.3469 dc         1 CLA      0.107700
    117 HAB        78.3531   62.6698   42.8836 da         1 CLA      0.155200
    118 H93        88.7932   57.0517   38.4663 dc         1 CLA      0.069500
    119 H92        88.0856   57.8452   36.9503 dc         1 CLA      0.069500
    120 H91        87.9684   58.5126   38.5740 dc         1 CLA      0.069500
    121 H8         85.9063   57.6296   38.2329 dc         1 CLA      0.029300
    122 H72        85.4682   55.1876   37.6628 dc         1 CLA      0.044400
    123 H71        87.2719   54.8806   37.3711 dc         1 CLA      0.044400
    124 H62        87.1801   56.5175   35.6035 dc         1 CLA      0.015600
    125 H61        85.4173   56.6671   35.7190 dc         1 CLA      0.015600
    126 H52        86.9759   54.1761   35.0133 dc         1 CLA      0.033200
    127 H51        86.2123   55.1789   33.8097 dc         1 CLA      0.033200
    128 H43        83.8755   52.2066   35.5666 dc         1 CLA      0.037000
    129 H42        85.5258   51.9761   34.8867 dc         1 CLA      0.037000
    130 H41        85.2223   52.7104   36.5645 dc         1 CLA      0.037000
    131 H3A        81.3883   59.9031   35.3855 dc         1 CLA      0.041100
    132 H2A        80.9022   57.0589   35.1315 dc         1 CLA      0.083100
    133 H2         83.5392   55.4956   35.5400 da         1 CLA      0.180900
    134 H18        82.7449   57.9161   44.7982 dc         1 CLA     -0.003900
    135 H13        86.9591   58.8105   43.3247 dc         1 CLA      0.019700
    136 H12        82.1221   54.5562   33.1855 dc         1 CLA      0.120400
    137 H11        83.7855   54.8972   32.6325 dc         1 CLA      0.120400
    138 C1         69.4660   61.6909   49.5599 Z1         2 LUT      0.509236
    139 C2         67.9637   61.3341   49.9933 Z2         2 LUT     -0.434695
    140 C3         66.9769   62.5499   50.1915 Z3         2 LUT      0.437453
    141 O3         66.5317   62.7384   51.5353 S1         2 LUT     -0.547129
    142 C4         67.5250   63.8385   49.5461 Z4         2 LUT     -0.468603
    143 C5         68.2634   63.5718   48.3603 Z5         2 LUT      0.279246
    144 C6         69.2128   62.6471   48.3018 Z6         2 LUT     -0.305473
    145 C7         69.6522   62.2126   46.9206 Z7         2 LUT      0.069402
    146 C8         70.7509   62.7571   46.3796 Z8         2 LUT     -0.191631
    147 C9         71.3690   62.4172   45.0784 Z9         2 LUT      0.196698
    148 C10        72.4866   63.1453   44.7994 Y1         2 LUT     -0.208611
    149 C11        73.1314   63.1912   43.5416 Y2         2 LUT      0.030784
    150 C12        74.2650   63.9631   43.3014 Y3         2 LUT     -0.220316
    151 C13        74.9749   64.0151   42.0139 Y4         2 LUT      0.215937
    152 C14        76.1437   64.8095   41.9835 Y5         2 LUT     -0.185793
    153 C15        77.0908   64.8919   40.9459 Y6         2 LUT     -0.057835
    154 C16        70.2641   60.3459   49.4787 Y7         2 LUT     -0.405615
    155 C17        70.0700   62.3968   50.7840 Y7         2 LUT     -0.405615
    156 C18        67.8225   64.5118   47.2184 Y9         2 LUT     -0.369639
    157 C19        70.7980   61.4441   44.0986 W1         2 LUT     -0.333362
    158 C20        74.4555   63.3377   40.7868 W2         2 LUT     -0.323439
    159 C21        88.9525   66.0174   35.1098 Z1         2 LUT      0.406104
    160 C22        89.6835   65.2195   33.9408 Z2         2 LUT     -0.404965
    161 C23        89.6219   65.8225   32.5254 Z3         2 LUT      0.391255
    162 O23        90.2015   64.8273   31.7138 S1         2 LUT     -0.528210
    163 C24        88.1993   66.3820   32.2737 W6         2 LUT     -0.258361
    164 C25        87.2721   66.7023   33.1408 Z5         2 LUT      0.133546
    165 C26        87.4315   66.1831   34.6027 W8         2 LUT     -0.147008
    166 C27        86.5238   66.8301   35.5831 Z7         2 LUT      0.023843
    167 C28        85.4706   66.3148   36.2238 Z8         2 LUT     -0.216987
    168 C29        84.7881   66.7949   37.4356 Z9         2 LUT      0.206524
    169 C30        83.6694   66.0459   37.8641 Y1         2 LUT     -0.215556
    170 C31        82.8204   66.3403   38.9874 Y2         2 LUT      0.025142
    171 C32        81.5244   65.8281   39.1510 Y3         2 LUT     -0.212209
    172 C33        80.6556   65.8941   40.3100 Y4         2 LUT      0.240937
    173 C34        79.4055   65.3282   40.2695 Y5         2 LUT     -0.218862
    174 C35        78.3639   65.4316   41.1871 Y6         2 LUT     -0.023547
    175 C36        89.5831   67.3815   35.1768 Y7         2 LUT     -0.393485
    176 C37        89.3048   65.1571   36.3518 Y7         2 LUT     -0.393485
    177 C38        85.9509   67.2583   32.6732 Y9         2 LUT     -0.387526
    178 C39        85.3215   68.0342   38.1691 W1         2 LUT     -0.322618
    179 C40        80.9815   66.8776   41.4035 W2         2 LUT     -0.358472
    180 H403       81.9772   66.7432   41.8998 R7         2 LUT      0.097720
    181 H402       80.7738   67.9506   41.2897 R7         2 LUT      0.097720
    182 H401       80.4278   66.7393   42.2949 R7         2 LUT      0.097720
    183 H393       86.1325   67.8036   38.9207 R4         2 LUT      0.082505
    184 H392       85.5620   68.7832   37.3678 R4         2 LUT      0.082505
    185 H391       84.6163   68.4481   38.8648 R4         2 LUT      0.082505
    186 H383       86.1844   68.1971   32.0337 R1         2 LUT      0.104030
    187 H382       85.4766   66.4595   32.0646 R1         2 LUT      0.104030
    188 H381       85.2650   67.4701   33.4465 R1         2 LUT      0.104030
    189 H373       90.3754   65.0949   36.3836 T4         2 LUT      0.089537
    190 H372       88.9404   65.6689   37.2246 T4         2 LUT      0.089537
    191 H371       88.8703   64.1607   36.4187 T4         2 LUT      0.089537
    192 H363       89.8053   67.9156   34.2092 T4         2 LUT      0.089537
    193 H362       88.9672   68.1231   35.7279 T4         2 LUT      0.089537
    194 H361       90.4726   67.3072   35.6166 T4         2 LUT      0.089537
    195 H222       90.6906   65.1745   34.2696 U2         2 LUT      0.127376
    196 H221       89.4116   64.1384   33.8543 U2         2 LUT      0.127376
    197 H203       73.6004   63.7812   40.4002 R7         2 LUT      0.087068
    198 H202       75.2030   63.1716   40.0499 R7         2 LUT      0.087068
    199 H201       74.1427   62.3880   41.0195 R7         2 LUT      0.087068
    200 H193       71.2826   60.4621   44.2478 R4         2 LUT      0.089716
    201 H192       69.7025   61.3907   44.1898 R4         2 LUT      0.089716
    202 H191       70.9102   61.6837   43.0695 R4         2 LUT      0.089716
    203 H183       68.8372   64.7792   46.7390 R1         2 LUT      0.094572
    204 H182       67.3684   63.8295   46.4346 R1         2 LUT      0.094572
    205 H181       67.3857   65.4835   47.4200 R1         2 LUT      0.094572
    206 H173       69.7901   63.3296   51.1328 T4         2 LUT      0.093752
    207 H172       69.9541   61.7655   51.6549 T4         2 LUT      0.093752
    208 H171       71.1776   62.5853   50.5578 T4         2 LUT      0.093752
    209 H163       71.2508   60.4864   49.1689 T4         2 LUT      0.093752
    210 H162       70.2954   59.8040   50.4325 T4         2 LUT      0.093752
    211 H161       69.8080   59.7036   48.7230 T4         2 LUT      0.093752
    212 HO3        67.2551   62.6547   52.1877 Q1         2 LUT      0.300121
    213 H8         71.3549   63.5033   46.9176 U7         2 LUT      0.080784
    214 H7         69.0520   61.5034   46.3519 U6         2 LUT      0.042190
    215 H42        66.7816   64.5890   49.4538 U5         2 LUT      0.145166
    216 H41        68.2199   64.2560   50.2615 U5         2 LUT      0.145166
    217 H35        78.5772   65.7220   42.2764 T3         2 LUT      0.077919
    218 H34        79.1138   64.7905   39.3039 T2         2 LUT      0.073626
    219 H32        81.0111   65.1702   38.3738 T1         2 LUT      0.092510
    220 H31        83.1447   67.0358   39.7315 U9         2 LUT      0.070048
    221 H30        83.3987   65.2237   37.1774 U8         2 LUT      0.085442
    222 H3         66.0478   62.4691   49.5599 U3         2 LUT     -0.031596
    223 H28        84.9403   65.5032   35.7022 U7         2 LUT      0.084728
    224 H27        86.9802   67.6429   36.2085 U6         2 LUT      0.087291
    225 H26        87.0636   65.1795   34.7267 Q6         2 LUT      0.075325
    226 H24        88.0000   66.5769   31.2005 Q5         2 LUT      0.094482
    227 H23        90.2559   66.7298   32.6302 U3         2 LUT     -0.024869
    228 H22        67.5152   60.7688   49.1997 U2         2 LUT      0.127376
    229 H21        67.9890   60.7378   50.9023 U2         2 LUT      0.127376
    230 H15        76.8726   64.4977   39.9262 T3         2 LUT      0.093200
    231 H14        76.5229   65.3213   42.8393 T2         2 LUT      0.068865
    232 H12        74.7558   64.5772   44.1187 T1         2 LUT      0.095507
    233 H11        72.7070   62.6637   42.6976 U9         2 LUT      0.068930
    234 H10        72.8122   63.8489   45.5462 U8         2 LUT      0.083911
    235 H1         90.2341   65.0684   30.8148 Q1         2 LUT      0.297311
@<TRIPOS>BOND
    1     6     1 1
    2     7     2 1
    3     8     3 1
    4     9     4 1
    5    11     4 1
    6    12     6 1
    7    13     9 1
    8    16     9 1
    9    25     5 1
   10    25    16 1
   11    26    10 1
   12    26    17 1
   13    27    18 1
   14    28    14 1
   15    28    19 1
   16    29    12 1
   17    30    13 1
   18    31    24 1
   19    32     1 1
   20    32    25 1
   21    33    21 1
   22    33    26 1
   23    34    22 1
   24    34    27 1
   25    35    23 1
   26    35    28 1
   27    36    12 1
   28    36    24 1
   29    37    13 1
   30    37    15 1
   31    38    31 1
   32    39    20 1
   33    39    32 1
   34    40     2 1
   35    40    33 1
   36    41     3 1
   37    41    34 1
   38    42     4 1
   39    42    35 1
   40    43    38 1
   41    44     5 1
   42    44    17 1
   43    44    39 1
   44    45    10 1
   45    45    18 1
   46    45    40 1
   47    46    19 1
   48    46    41 1
   49    47    14 1
   50    47    16 1
   51    47    42 1
   52    48    38 1
   53    49    48 1
   54    50    49 1
   55    51    50 1
   56    52    51 1
   57    53    51 1
   58    54    53 1
   59    55    54 1
   60    56    55 1
   61    57    56 1
   62    58    56 1
   63    59    58 1
   64    60    59 1
   65    61    60 1
   66    62    61 1
   67    63    61 1
   68    64    27 1
   69    64    46 1
   70    65     5 1
   71    65    10 1
   72    65    64 1
   73    65    14 1
   74    66    23 1
   75    67    23 1
   76    68    23 1
   77    69    22 1
   78    70    22 1
   79    71    22 1
   80    72    21 1
   81    73    21 1
   82    74    21 1
   83    75    20 1
   84    76    20 1
   85    77    20 1
   86    78    15 1
   87    79    15 1
   88    80    15 1
   89    81     8 1
   90    82     8 1
   91    83     8 1
   92    84     7 1
   93    85     7 1
   94    86     6 1
   95    87     6 1
   96    88     3 1
   97    89     3 1
   98    90     1 1
   99    91     1 1
  100    92    63 1
  101    93    63 1
  102    94    63 1
  103    95    62 1
  104    96    62 1
  105    97    62 1
  106    98    60 1
  107    99    60 1
  108   100    59 1
  109   101    59 1
  110   102    58 1
  111   103    58 1
  112   104    57 1
  113   105    57 1
  114   106    57 1
  115   107    55 1
  116   108    55 1
  117   109    54 1
  118   110    54 1
  119   111    53 1
  120   112    53 1
  121   113    19 1
  122   114    18 1
  123   115    17 1
  124   116     9 1
  125   117     2 1
  126   118    52 1
  127   119    52 1
  128   120    52 1
  129   121    51 1
  130   122    50 1
  131   123    50 1
  132   124    49 1
  133   125    49 1
  134   126    48 1
  135   127    48 1
  136   128    43 1
  137   129    43 1
  138   130    43 1
  139   131    39 1
  140   132    32 1
  141   133    31 1
  142   134    61 1
  143   135    56 1
  144   136    24 1
  145   137    24 1
  146   139   138 1
  147   140   139 1
  148   141   140 1
  149   142   140 1
  150   143   142 1
  151   144   138 1
  152   144   143 1
  153   145   144 1
  154   146   145 1
  155   147   146 1
  156   148   147 1
  157   149   148 1
  158   150   149 1
  159   151   150 1
  160   152   151 1
  161   153   152 1
  162   154   138 1
  163   155   138 1
  164   156   143 1
  165   157   147 1
  166   158   151 1
  167   160   159 1
  168   161   160 1
  169   162   161 1
  170   163   161 1
  171   164   163 1
  172   165   159 1
  173   165   164 1
  174   166   165 1
  175   167   166 1
  176   168   167 1
  177   169   168 1
  178   170   169 1
  179   171   170 1
  180   172   171 1
  181   173   172 1
  182   174   153 1
  183   174   173 1
  184   175   159 1
  185   176   159 1
  186   177   164 1
  187   178   168 1
  188   179   172 1
  189   180   179 1
  190   181   179 1
  191   182   179 1
  192   183   178 1
  193   184   178 1
  194   185   178 1
  195   186   177 1
  196   187   177 1
  197   188   177 1
  198   189   176 1
  199   190   176 1
  200   191   176 1
  201   192   175 1
  202   193   175 1
  203   194   175 1
  204   195   160 1
  205   196   160 1
  206   197   158 1
  207   198   158 1
  208   199   158 1
  209   200   157 1
  210   201   157 1
  211   202   157 1
  212   203   156 1
  213   204   156 1
  214   205   156 1
  215   206   155 1
  216   207   155 1
  217   208   155 1
  218   209   154 1
  219   210   154 1
  220   211   154 1
  221   212   141 1
  222   213   146 1
  223   214   145 1
  224   215   142 1
  225   216   142 1
  226   217   174 1
  227   218   173 1
  228   219   171 1
  229   220   170 1
  230   221   169 1
  231   222   140 1
  232   223   167 1
  233   224   166 1
  234   225   165 1
  235   226   163 1
  236   227   161 1
  237   228   139 1
  238   229   139 1
  239   230   153 1
  240   231   152 1
  241   232   150 1
  242   233   149 1
  243   234   148 1
  244   235   162 1
  245   65    153 1
  246   65    174 1
@<TRIPOS>SUBSTRUCTURE
      1 CLA               1 ****               0 ****  **** 
      2 LUT             138 ****               0 ****  **** 
