@<TRIPOS>MOLECULE
Cpptraj generated mol2 file.
  235   246     2     0     0
SMALL
USER_CHARGES


@<TRIPOS>ATOM
      1 CAA        78.4650   57.8094   34.5492 a2         1 CLA     -0.055900
      2 CAB        77.5405   61.3260   43.8172 c8         1 CLA     -0.148500
      3 CAC        71.0509   56.7930   42.5588 a2         1 CLA     -0.012600
      4 CAD        74.2245   55.1285   35.3445 ck         1 CLA      0.398800
      5 NA         77.0858   58.1653   37.9335 ns         1 CLA     -0.225500
      6 CBA        79.8105   57.8476   33.8067 a2         1 CLA     -0.135000
      7 CBB        78.5827   61.1865   44.6467 c0         1 CLA     -0.395200
      8 CBC        71.1212   55.2730   42.4513 a3         1 CLA     -0.037700
      9 CBD        75.7075   55.6958   35.2043 a1         1 CLA     -0.053900
     10 NB         76.6555   59.6639   40.5899 nm         1 CLA     -0.295700
     11 OBD        73.6424   54.4327   34.5043 o2         1 CLA     -0.494600
     12 CGA        80.5038   56.5323   33.6146 c4         1 CLA      0.827000
     13 CGD        76.7133   54.6268   34.9116 c4         1 CLA      0.655300
     14 ND         74.3416   57.0365   38.2783 nm         1 CLA     -0.291600
     15 CED        77.7113   52.5428   35.5239 a3         1 CLA      0.005400
     16 CHA        76.0272   56.5748   36.4468 cs         1 CLA     -0.123800
     17 CHB        78.6601   59.5271   39.2034 aa         1 CLA     -0.291900
     18 CHC        75.2544   59.5644   42.6120 aa         1 CLA     -0.090400
     19 CHD        72.3943   56.7694   39.7595 aa         1 CLA     -0.052000
     20 CMA        80.5003   57.5022   37.7134 a3         1 CLA     -0.230700
     21 CMB        79.7855   61.5051   41.4934 a3         1 CLA     -0.180800
     22 CMC        72.7583   58.7953   44.3517 a3         1 CLA     -0.134000
     23 CMD        71.4275   54.7404   37.4613 a3         1 CLA     -0.141100
     24 C1         81.8250   54.7379   34.7058 a2         1 CLA      0.023000
     25 C1A        77.0860   57.3445   36.8458 ac         1 CLA     -0.015100
     26 C1B        77.9997   60.0161   40.3622 cr         1 CLA      0.054700
     27 C1C        74.1671   58.8051   42.1282 cn         1 CLA     -0.005600
     28 C1D        73.0889   56.5155   38.5688 ap         1 CLA     -0.047300
     29 O1A        80.5866   55.7863   32.6115 o2         1 CLA     -0.610800
     30 O1D        77.6052   54.6396   34.0494 o2         1 CLA     -0.558200
     31 C2         82.4554   54.5403   36.1223 c8         1 CLA     -0.325100
     32 C2A        78.5051   57.4730   36.1263 a1         1 CLA      0.098600
     33 C2B        78.4963   60.7952   41.4518 cb         1 CLA      0.088500
     34 C2C        73.0544   58.3925   42.9326 cb         1 CLA      0.053700
     35 C2D        72.6728   55.6593   37.5145 cb         1 CLA      0.058900
     36 O2A        81.1042   56.0498   34.7850 o1         1 CLA     -0.437200
     37 O2D        76.6854   53.6139   35.8390 o1         1 CLA     -0.357600
     38 C3         82.9683   53.4430   36.7414 c5         1 CLA      0.031200
     39 C3A        79.3768   58.3303   37.0868 a1         1 CLA      0.166800
     40 C3B        77.4918   60.8537   42.3967 cb         1 CLA      0.035000
     41 C3C        72.2784   57.4925   42.1488 cb         1 CLA     -0.089900
     42 C3D        73.7987   55.6849   36.5942 cb         1 CLA     -0.035900
     43 C4         82.2240   52.5485   37.7519 a3         1 CLA     -0.053300
     44 C4A        78.2870   58.7797   38.0718 ac         1 CLA      0.001800
     45 C4B        76.3242   60.0675   41.8720 cn         1 CLA     -0.020900
     46 C4C        72.9060   57.4675   40.8805 cr         1 CLA     -0.044400
     47 C4D        74.7978   56.4655   37.1781 c6         1 CLA     -0.046000
     48 C5         84.4421   53.0785   36.5924 a2         1 CLA     -0.070400
     49 C6         85.4867   54.2187   36.6564 a2         1 CLA      0.043900
     50 C7         85.6586   54.7980   38.1034 a2         1 CLA     -0.150000
     51 C8         86.6408   55.9648   38.2586 a1         1 CLA      0.064200
     52 C9         88.0678   55.7171   37.8264 a3         1 CLA     -0.259300
     53 C10        86.5791   56.4820   39.7837 a2         1 CLA     -0.071900
     54 C11        85.2394   57.0142   40.2961 a2         1 CLA      0.014500
     55 C12        85.4224   57.8134   41.5526 a2         1 CLA     -0.112100
     56 C13        85.8901   57.1746   42.9260 a1         1 CLA      0.089200
     57 C14        84.9963   55.8594   43.3583 a3         1 CLA     -0.239100
     58 C15        85.9363   58.2255   44.0816 a2         1 CLA     -0.102200
     59 C16        84.5755   58.5654   44.7903 a2         1 CLA      0.023900
     60 C17        84.7746   59.7458   45.8473 a2         1 CLA     -0.105700
     61 C18        83.4832   60.3460   46.4902 a1         1 CLA      0.206800
     62 C19        82.4792   59.3365   47.2218 a3         1 CLA     -0.280100
     63 C20        83.6715   61.4696   47.5344 a3         1 CLA     -0.280100
     64 NC         74.0947   58.2274   40.9180 nx         1 CLA     -0.309200
     65 MG         75.4942   58.4153   39.3783 mg         1 CLA      0.895000
     66 HMD3       71.5203   53.8178   36.8322 dc         1 CLA      0.064300
     67 HMD2       71.0839   54.4955   38.4430 dc         1 CLA      0.064300
     68 HMD1       70.5387   55.2596   37.0756 dc         1 CLA      0.064300
     69 HMC3       73.4226   59.5739   44.8071 dc         1 CLA      0.052100
     70 HMC2       71.8036   59.3388   44.3485 dc         1 CLA      0.052100
     71 HMC1       72.5568   57.8573   44.8572 dc         1 CLA      0.052100
     72 HMB3       80.4873   60.9603   42.0699 dc         1 CLA      0.063600
     73 HMB2       80.0242   61.7151   40.4837 dc         1 CLA      0.063600
     74 HMB1       79.5884   62.5174   41.9419 dc         1 CLA      0.063600
     75 HMA3       80.1356   56.5001   38.0703 dc         1 CLA      0.058300
     76 HMA2       81.3215   57.3653   36.9985 dc         1 CLA      0.058300
     77 HMA1       80.9883   58.1259   38.4500 dc         1 CLA      0.058300
     78 HED3       77.7369   51.7922   36.3216 dc         1 CLA      0.079300
     79 HED2       77.4541   51.9768   34.6270 dc         1 CLA      0.079300
     80 HED1       78.7035   52.9968   35.3271 dc         1 CLA      0.079300
     81 HBC3       72.0426   54.9769   42.9667 dc         1 CLA      0.016300
     82 HBC2       70.3248   54.9273   43.0791 dc         1 CLA      0.016300
     83 HBC1       71.0056   54.8651   41.4327 dc         1 CLA      0.016300
     84 HBB2       78.5289   61.5861   45.6967 da         1 CLA      0.183000
     85 HBB1       79.5020   60.7249   44.2894 da         1 CLA      0.183000
     86 HBA2       79.6605   58.2442   32.7796 dc         1 CLA      0.029400
     87 HBA1       80.5694   58.4924   34.2461 dc         1 CLA      0.029400
     88 HAC2       70.9224   57.0122   43.5704 dc         1 CLA      0.029300
     89 HAC1       70.2146   57.1262   41.9588 dc         1 CLA      0.029300
     90 HAA2       77.8557   57.1843   33.9542 dc         1 CLA      0.028700
     91 HAA1       78.0140   58.7550   34.6025 dc         1 CLA      0.028700
     92 H203       84.0564   61.0892   48.4626 dc         1 CLA      0.065600
     93 H202       84.2191   62.3103   47.1427 dc         1 CLA      0.065600
     94 H201       82.6665   61.8318   47.7865 dc         1 CLA      0.065600
     95 H193       81.5994   59.7677   47.7393 dc         1 CLA      0.065600
     96 H192       82.2014   58.5891   46.5693 dc         1 CLA      0.065600
     97 H191       83.1042   58.9004   48.0383 dc         1 CLA      0.065600
     98 H172       85.4123   59.3368   46.5884 dc         1 CLA      0.027600
     99 H171       85.4111   60.5221   45.5291 dc         1 CLA      0.027600
    100 H162       83.7688   58.8604   44.0665 dc         1 CLA      0.002900
    101 H161       84.2303   57.5628   45.1709 dc         1 CLA      0.002900
    102 H152       86.6990   57.8439   44.8843 dc         1 CLA      0.029100
    103 H151       86.3798   59.1717   43.7028 dc         1 CLA      0.029100
    104 H143       85.5026   55.3800   44.1644 dc         1 CLA      0.063600
    105 H142       83.9798   56.1685   43.6825 dc         1 CLA      0.063600
    106 H141       84.9475   55.1258   42.5530 dc         1 CLA      0.063600
    107 H122       86.1351   58.6570   41.2799 dc         1 CLA      0.032500
    108 H121       84.4397   58.3883   41.7390 dc         1 CLA      0.032500
    109 H112       84.8563   57.5982   39.4360 dc         1 CLA      0.006600
    110 H111       84.6455   56.0811   40.4358 dc         1 CLA      0.006600
    111 H102       86.9023   55.6804   40.4910 dc         1 CLA      0.024100
    112 H101       87.3290   57.2751   39.9676 dc         1 CLA      0.024100
    113 HHD        71.3778   56.3635   39.8539 da         1 CLA      0.174300
    114 HHC        75.2383   59.8798   43.6228 da         1 CLA      0.136800
    115 HHB        79.6869   59.7456   39.2047 da         1 CLA      0.138300
    116 HBD        75.6141   56.4228   34.4073 dc         1 CLA      0.107700
    117 HAB        76.5967   61.7335   44.2596 da         1 CLA      0.155200
    118 H93        88.4199   54.8064   38.1789 dc         1 CLA      0.069500
    119 H92        88.1158   55.7195   36.7139 dc         1 CLA      0.069500
    120 H91        88.7500   56.5335   38.1310 dc         1 CLA      0.069500
    121 H8         86.2431   56.7824   37.6364 dc         1 CLA      0.029300
    122 H72        84.6626   55.1371   38.4366 dc         1 CLA      0.044400
    123 H71        85.9096   54.0251   38.7852 dc         1 CLA      0.044400
    124 H62        86.4116   53.7235   36.4060 dc         1 CLA      0.015600
    125 H61        85.1360   55.0165   35.9340 dc         1 CLA      0.015600
    126 H52        84.6802   52.2630   37.3041 dc         1 CLA      0.033200
    127 H51        84.3943   52.6905   35.5457 dc         1 CLA      0.033200
    128 H43        82.4235   51.4872   37.5259 dc         1 CLA      0.037000
    129 H42        82.6328   52.7915   38.7660 dc         1 CLA      0.037000
    130 H41        81.1676   52.7668   37.8584 dc         1 CLA      0.037000
    131 H3A        79.6448   59.2462   36.5980 dc         1 CLA      0.041100
    132 H2A        78.9024   56.4518   36.2137 dc         1 CLA      0.083100
    133 H2         82.6880   55.4038   36.6856 da         1 CLA      0.180900
    134 H18        82.8961   60.7922   45.6360 dc         1 CLA     -0.003900
    135 H13        86.9379   56.8577   42.8257 dc         1 CLA      0.019700
    136 H12        81.0167   53.9351   34.6491 dc         1 CLA      0.120400
    137 H11        82.6022   54.8225   34.0578 dc         1 CLA      0.120400
    138 C1         67.9251   60.7173   50.0855 Z1         2 LUT      0.509236
    139 C2         66.5371   60.6599   50.8061 Z2         2 LUT     -0.434695
    140 C3         65.7347   61.9551   51.0644 Z3         2 LUT      0.437453
    141 O3         65.9395   62.4315   52.3744 S1         2 LUT     -0.547129
    142 C4         66.1299   63.0927   50.1018 Z4         2 LUT     -0.468603
    143 C5         66.9407   62.7371   48.8640 Z5         2 LUT      0.279246
    144 C6         67.7666   61.6845   48.8559 Z6         2 LUT     -0.305473
    145 C7         68.2629   61.1287   47.5949 Z7         2 LUT      0.069402
    146 C8         69.1534   61.7515   46.7620 Z8         2 LUT     -0.191631
    147 C9         69.7521   61.2705   45.5127 Z9         2 LUT      0.196698
    148 C10        70.6931   62.0579   44.9019 Y1         2 LUT     -0.208611
    149 C11        71.2352   61.9969   43.5588 Y2         2 LUT      0.030784
    150 C12        72.3661   62.7650   43.1844 Y3         2 LUT     -0.220316
    151 C13        73.2416   62.6509   42.0512 Y4         2 LUT      0.215937
    152 C14        74.4259   63.3659   41.9742 Y5         2 LUT     -0.185793
    153 C15        75.4611   63.1953   41.0299 Y6         2 LUT     -0.057835
    154 C16        68.4131   59.2134   49.8171 Y7         2 LUT     -0.405615
    155 C17        68.9019   61.3233   51.1800 Y7         2 LUT     -0.405615
    156 C18        66.3398   63.4017   47.6461 Y9         2 LUT     -0.369639
    157 C19        69.2432   59.9485   44.9631 W1         2 LUT     -0.333362
    158 C20        72.4911   62.1179   40.8545 W2         2 LUT     -0.323439
    159 C21        87.2542   65.1638   35.1689 Z1         2 LUT      0.406104
    160 C22        87.7464   64.5340   33.8954 Z2         2 LUT     -0.404965
    161 C23        87.6125   65.3586   32.6740 Z3         2 LUT      0.391255
    162 O23        88.0026   64.4276   31.6026 S1         2 LUT     -0.528210
    163 C24        86.3091   65.9844   32.5633 W6         2 LUT     -0.258361
    164 C25        85.4180   65.9869   33.5523 Z5         2 LUT      0.133546
    165 C26        85.6969   65.2811   34.8801 W8         2 LUT     -0.147008
    166 C27        84.9759   65.8840   36.0467 Z7         2 LUT      0.023843
    167 C28        83.7537   65.5138   36.5100 Z8         2 LUT     -0.216987
    168 C29        83.0265   65.7696   37.7371 Z9         2 LUT      0.206524
    169 C30        81.9097   65.0441   37.9797 Y1         2 LUT     -0.215556
    170 C31        81.0238   65.1840   39.0877 Y2         2 LUT      0.025142
    171 C32        79.7928   64.5925   39.1793 Y3         2 LUT     -0.212209
    172 C33        78.7819   64.6717   40.2488 Y4         2 LUT      0.240937
    173 C34        77.6943   63.8255   40.2316 Y5         2 LUT     -0.218862
    174 C35        76.6214   63.8640   41.1439 Y6         2 LUT     -0.023547
    175 C36        88.0303   66.4691   35.5622 Y7         2 LUT     -0.393485
    176 C37        87.5348   64.0610   36.3232 Y7         2 LUT     -0.393485
    177 C38        84.0343   66.6883   33.3413 Y9         2 LUT     -0.387526
    178 C39        83.5424   67.0303   38.5389 W1         2 LUT     -0.322618
    179 C40        78.9874   65.7020   41.3620 W2         2 LUT     -0.358472
    180 H403       79.0817   66.7232   40.9713 R7         2 LUT      0.097720
    181 H402       78.2553   65.7370   42.1447 R7         2 LUT      0.097720
    182 H401       79.8118   65.4725   41.9883 R7         2 LUT      0.097720
    183 H393       84.0094   67.8646   37.8951 R4         2 LUT      0.082505
    184 H392       82.8010   67.4149   39.3035 R4         2 LUT      0.082505
    185 H391       84.4622   66.8408   39.1506 R4         2 LUT      0.082505
    186 H383       83.1945   66.0443   33.0864 R1         2 LUT      0.104030
    187 H382       83.7596   67.1639   34.3090 R1         2 LUT      0.104030
    188 H381       84.2564   67.4082   32.5106 R1         2 LUT      0.104030
    189 H373       87.4341   64.4175   37.3406 T4         2 LUT      0.089537
    190 H372       86.9747   63.1340   36.1702 T4         2 LUT      0.089537
    191 H371       88.5738   63.7468   36.2956 T4         2 LUT      0.089537
    192 H363       89.1312   66.5300   35.1829 T4         2 LUT      0.089537
    193 H362       87.4831   67.2288   35.0044 T4         2 LUT      0.089537
    194 H361       87.9888   66.6929   36.5727 T4         2 LUT      0.089537
    195 H222       88.7131   64.0438   33.9540 U2         2 LUT      0.127376
    196 H221       87.0766   63.6215   33.7377 U2         2 LUT      0.127376
    197 H203       72.9350   62.4681   39.8660 R7         2 LUT      0.087068
    198 H202       72.4727   61.0632   40.8615 R7         2 LUT      0.087068
    199 H201       71.4376   62.3817   40.7383 R7         2 LUT      0.087068
    200 H193       69.5731   59.0465   45.5342 R4         2 LUT      0.089716
    201 H192       68.1836   59.9967   45.0032 R4         2 LUT      0.089716
    202 H191       69.5204   59.9098   43.8799 R4         2 LUT      0.089716
    203 H183       66.6778   62.9414   46.6758 R1         2 LUT      0.094572
    204 H182       65.2493   63.3965   47.7476 R1         2 LUT      0.094572
    205 H181       66.7253   64.4554   47.6032 R1         2 LUT      0.094572
    206 H173       69.8749   61.2250   50.7837 T4         2 LUT      0.093752
    207 H172       68.7987   62.4290   51.2992 T4         2 LUT      0.093752
    208 H171       68.9265   60.8742   52.2073 T4         2 LUT      0.093752
    209 H163       68.3325   58.7621   50.8468 T4         2 LUT      0.093752
    210 H162       67.8046   58.6446   49.0981 T4         2 LUT      0.093752
    211 H161       69.3781   59.2467   49.4331 T4         2 LUT      0.093752
    212 HO3        65.4259   61.9509   53.0536 Q1         2 LUT      0.300121
    213 H8         69.4958   62.6897   47.1663 U7         2 LUT      0.080784
    214 H7         67.8523   60.1714   47.2383 U6         2 LUT      0.042190
    215 H42        65.2720   63.6936   49.8855 U5         2 LUT      0.145166
    216 H41        66.6824   63.8890   50.6457 U5         2 LUT      0.145166
    217 H35        76.6796   64.5613   42.0473 T3         2 LUT      0.077919
    218 H34        77.8991   62.9422   39.6324 T2         2 LUT      0.073626
    219 H32        79.4830   63.8464   38.4210 T1         2 LUT      0.092510
    220 H31        81.3762   65.8735   39.8909 U9         2 LUT      0.070048
    221 H30        81.6758   64.2975   37.2775 U8         2 LUT      0.085442
    222 H3         64.6789   61.6175   50.8307 U3         2 LUT     -0.031596
    223 H28        83.3354   64.7666   35.7816 U7         2 LUT      0.084728
    224 H27        85.4747   66.5744   36.6181 U6         2 LUT      0.087291
    225 H26        85.2953   64.2756   34.6400 Q6         2 LUT      0.075325
    226 H24        86.0593   66.4036   31.5899 Q5         2 LUT      0.094482
    227 H23        88.3954   66.0767   32.7015 U3         2 LUT     -0.024869
    228 H22        65.8566   59.9741   50.2348 U2         2 LUT      0.127376
    229 H21        66.6035   60.1342   51.7565 U2         2 LUT      0.127376
    230 H15        75.3662   62.4884   40.1765 T3         2 LUT      0.093200
    231 H14        74.6567   63.9866   42.8912 T2         2 LUT      0.068865
    232 H12        72.7574   63.3980   43.9210 T1         2 LUT      0.095507
    233 H11        70.8118   61.2783   42.9030 U9         2 LUT      0.068930
    234 H10        70.9045   63.0036   45.4065 U8         2 LUT      0.083911
    235 H1         88.1187   64.8768   30.7391 Q1         2 LUT      0.297311
@<TRIPOS>BOND
    1     6     1 1
    2     7     2 1
    3     8     3 1
    4     9     4 1
    5    11     4 1
    6    12     6 1
    7    13     9 1
    8    16     9 1
    9    25     5 1
   10    25    16 1
   11    26    10 1
   12    26    17 1
   13    27    18 1
   14    28    14 1
   15    28    19 1
   16    29    12 1
   17    30    13 1
   18    31    24 1
   19    32     1 1
   20    32    25 1
   21    33    21 1
   22    33    26 1
   23    34    22 1
   24    34    27 1
   25    35    23 1
   26    35    28 1
   27    36    12 1
   28    36    24 1
   29    37    13 1
   30    37    15 1
   31    38    31 1
   32    39    20 1
   33    39    32 1
   34    40     2 1
   35    40    33 1
   36    41     3 1
   37    41    34 1
   38    42     4 1
   39    42    35 1
   40    43    38 1
   41    44     5 1
   42    44    17 1
   43    44    39 1
   44    45    10 1
   45    45    18 1
   46    45    40 1
   47    46    19 1
   48    46    41 1
   49    47    14 1
   50    47    16 1
   51    47    42 1
   52    48    38 1
   53    49    48 1
   54    50    49 1
   55    51    50 1
   56    52    51 1
   57    53    51 1
   58    54    53 1
   59    55    54 1
   60    56    55 1
   61    57    56 1
   62    58    56 1
   63    59    58 1
   64    60    59 1
   65    61    60 1
   66    62    61 1
   67    63    61 1
   68    64    27 1
   69    64    46 1
   70    65     5 1
   71    65    10 1
   72    65    64 1
   73    65    14 1
   74    66    23 1
   75    67    23 1
   76    68    23 1
   77    69    22 1
   78    70    22 1
   79    71    22 1
   80    72    21 1
   81    73    21 1
   82    74    21 1
   83    75    20 1
   84    76    20 1
   85    77    20 1
   86    78    15 1
   87    79    15 1
   88    80    15 1
   89    81     8 1
   90    82     8 1
   91    83     8 1
   92    84     7 1
   93    85     7 1
   94    86     6 1
   95    87     6 1
   96    88     3 1
   97    89     3 1
   98    90     1 1
   99    91     1 1
  100    92    63 1
  101    93    63 1
  102    94    63 1
  103    95    62 1
  104    96    62 1
  105    97    62 1
  106    98    60 1
  107    99    60 1
  108   100    59 1
  109   101    59 1
  110   102    58 1
  111   103    58 1
  112   104    57 1
  113   105    57 1
  114   106    57 1
  115   107    55 1
  116   108    55 1
  117   109    54 1
  118   110    54 1
  119   111    53 1
  120   112    53 1
  121   113    19 1
  122   114    18 1
  123   115    17 1
  124   116     9 1
  125   117     2 1
  126   118    52 1
  127   119    52 1
  128   120    52 1
  129   121    51 1
  130   122    50 1
  131   123    50 1
  132   124    49 1
  133   125    49 1
  134   126    48 1
  135   127    48 1
  136   128    43 1
  137   129    43 1
  138   130    43 1
  139   131    39 1
  140   132    32 1
  141   133    31 1
  142   134    61 1
  143   135    56 1
  144   136    24 1
  145   137    24 1
  146   139   138 1
  147   140   139 1
  148   141   140 1
  149   142   140 1
  150   143   142 1
  151   144   138 1
  152   144   143 1
  153   145   144 1
  154   146   145 1
  155   147   146 1
  156   148   147 1
  157   149   148 1
  158   150   149 1
  159   151   150 1
  160   152   151 1
  161   153   152 1
  162   154   138 1
  163   155   138 1
  164   156   143 1
  165   157   147 1
  166   158   151 1
  167   160   159 1
  168   161   160 1
  169   162   161 1
  170   163   161 1
  171   164   163 1
  172   165   159 1
  173   165   164 1
  174   166   165 1
  175   167   166 1
  176   168   167 1
  177   169   168 1
  178   170   169 1
  179   171   170 1
  180   172   171 1
  181   173   172 1
  182   174   153 1
  183   174   173 1
  184   175   159 1
  185   176   159 1
  186   177   164 1
  187   178   168 1
  188   179   172 1
  189   180   179 1
  190   181   179 1
  191   182   179 1
  192   183   178 1
  193   184   178 1
  194   185   178 1
  195   186   177 1
  196   187   177 1
  197   188   177 1
  198   189   176 1
  199   190   176 1
  200   191   176 1
  201   192   175 1
  202   193   175 1
  203   194   175 1
  204   195   160 1
  205   196   160 1
  206   197   158 1
  207   198   158 1
  208   199   158 1
  209   200   157 1
  210   201   157 1
  211   202   157 1
  212   203   156 1
  213   204   156 1
  214   205   156 1
  215   206   155 1
  216   207   155 1
  217   208   155 1
  218   209   154 1
  219   210   154 1
  220   211   154 1
  221   212   141 1
  222   213   146 1
  223   214   145 1
  224   215   142 1
  225   216   142 1
  226   217   174 1
  227   218   173 1
  228   219   171 1
  229   220   170 1
  230   221   169 1
  231   222   140 1
  232   223   167 1
  233   224   166 1
  234   225   165 1
  235   226   163 1
  236   227   161 1
  237   228   139 1
  238   229   139 1
  239   230   153 1
  240   231   152 1
  241   232   150 1
  242   233   149 1
  243   234   148 1
  244   235   162 1
  245   65    153 1
  246   65    174 1
@<TRIPOS>SUBSTRUCTURE
      1 CLA               1 ****               0 ****  **** 
      2 LUT             138 ****               0 ****  **** 
