@<TRIPOS>MOLECULE
Cpptraj generated mol2 file.
  235   246     2     0     0
SMALL
USER_CHARGES


@<TRIPOS>ATOM
      1 CAA        77.1923   57.8446   33.4892 a2         1 CLA     -0.055900
      2 CAB        77.3649   60.8445   42.6937 c8         1 CLA     -0.148500
      3 CAC        70.2272   57.2232   41.8770 a2         1 CLA     -0.012600
      4 CAD        72.7990   55.4476   34.4702 ck         1 CLA      0.398800
      5 NA         76.0126   58.2365   36.7395 ns         1 CLA     -0.225500
      6 CBA        78.3689   57.5579   32.6593 a2         1 CLA     -0.135000
      7 CBB        78.5628   60.9058   43.3326 c0         1 CLA     -0.395200
      8 CBC        70.3084   55.6886   42.1644 a3         1 CLA     -0.037700
      9 CBD        74.2413   55.9066   34.1509 a1         1 CLA     -0.053900
     10 NB         75.9724   59.5569   39.4396 nm         1 CLA     -0.295700
     11 OBD        72.1960   54.6442   33.7874 o2         1 CLA     -0.494600
     12 CGA        79.0279   56.1673   32.4271 c4         1 CLA      0.827000
     13 CGD        75.2545   54.7601   33.9819 c4         1 CLA      0.655300
     14 ND         73.2635   57.5032   37.2840 nm         1 CLA     -0.291600
     15 CED        75.4946   52.5997   34.8140 a3         1 CLA      0.005400
     16 CHA        74.6425   56.8420   35.2860 cs         1 CLA     -0.123800
     17 CHB        77.9264   59.4055   37.8513 aa         1 CLA     -0.291900
     18 CHC        74.7356   59.7123   41.6690 aa         1 CLA     -0.090400
     19 CHD        71.5263   57.0944   39.0493 aa         1 CLA     -0.052000
     20 CMA        79.4035   57.1701   36.2260 a3         1 CLA     -0.230700
     21 CMB        79.3408   61.0168   40.0204 a3         1 CLA     -0.180800
     22 CMC        72.3774   58.8211   43.7474 a3         1 CLA     -0.134000
     23 CMD        70.0542   55.5218   36.7542 a3         1 CLA     -0.141100
     24 C1         80.9497   54.7194   33.0767 a2         1 CLA      0.023000
     25 C1A        75.8806   57.4709   35.6417 ac         1 CLA     -0.015100
     26 C1B        77.3187   59.7896   39.0754 cr         1 CLA      0.054700
     27 C1C        73.5771   58.9673   41.3573 cn         1 CLA     -0.005600
     28 C1D        72.0318   56.9488   37.7491 ap         1 CLA     -0.047300
     29 O1A        78.6231   55.2978   31.6511 o2         1 CLA     -0.610800
     30 O1D        75.9120   54.5945   32.9933 o2         1 CLA     -0.558200
     31 C2         81.2156   54.2338   34.4790 c8         1 CLA     -0.325100
     32 C2A        77.1997   57.3317   34.9324 a1         1 CLA      0.098600
     33 C2B        77.9995   60.4894   40.1814 cb         1 CLA      0.088500
     34 C2C        72.5186   58.5480   42.2480 cb         1 CLA      0.053700
     35 C2D        71.3995   56.1932   36.7063 cb         1 CLA      0.058900
     36 O2A        80.1504   55.9603   33.2005 o1         1 CLA     -0.437200
     37 O2D        75.0874   53.9292   35.0936 o1         1 CLA     -0.357600
     38 C3         81.1664   53.0196   35.0279 c5         1 CLA      0.031200
     39 C3A        78.2356   58.0564   35.7563 a1         1 CLA      0.166800
     40 C3B        77.1488   60.4812   41.2706 cb         1 CLA      0.035000
     41 C3C        71.5752   57.8794   41.4604 cb         1 CLA     -0.089900
     42 C3D        72.3731   56.0957   35.7259 cb         1 CLA     -0.035900
     43 C4         79.9108   52.3278   35.5813 a3         1 CLA     -0.053300
     44 C4A        77.3783   58.6330   36.8228 ac         1 CLA      0.001800
     45 C4B        75.8447   59.9711   40.7869 cn         1 CLA     -0.020900
     46 C4C        72.0476   57.8398   40.1343 cr         1 CLA     -0.044400
     47 C4D        73.4914   56.9116   36.1144 c6         1 CLA     -0.046000
     48 C5         82.5044   52.2543   35.1699 a2         1 CLA     -0.070400
     49 C6         83.7000   53.0599   35.6943 a2         1 CLA      0.043900
     50 C7         83.4173   53.5950   37.0925 a2         1 CLA     -0.150000
     51 C8         84.4608   54.7557   37.3727 a1         1 CLA      0.064200
     52 C9         85.9244   54.4172   36.9905 a3         1 CLA     -0.259300
     53 C10        84.3144   55.3175   38.8309 a2         1 CLA     -0.071900
     54 C11        82.9680   55.9650   39.1668 a2         1 CLA      0.014500
     55 C12        82.9465   56.6328   40.4978 a2         1 CLA     -0.112100
     56 C13        81.6052   56.5960   41.2659 a1         1 CLA      0.089200
     57 C14        80.5499   57.4069   40.4222 a3         1 CLA     -0.239100
     58 C15        81.7770   57.1255   42.6654 a2         1 CLA     -0.102200
     59 C16        82.3290   58.5488   42.8870 a2         1 CLA      0.023900
     60 C17        82.4463   59.0364   44.3746 a2         1 CLA     -0.105700
     61 C18        82.9801   60.4501   44.5809 a1         1 CLA      0.206800
     62 C19        84.3050   60.8229   43.8214 a3         1 CLA     -0.280100
     63 C20        81.9546   61.5142   44.5511 a3         1 CLA     -0.280100
     64 NC         73.2895   58.5167   40.0304 nx         1 CLA     -0.309200
     65 MG         74.5387   58.6481   38.2942 mg         1 CLA      0.895000
     66 HMD3       69.9653   54.7517   36.0317 dc         1 CLA      0.064300
     67 HMD2       69.9658   55.0949   37.7714 dc         1 CLA      0.064300
     68 HMD1       69.3501   56.2940   36.6086 dc         1 CLA      0.064300
     69 HMC3       71.7209   59.6184   43.9531 dc         1 CLA      0.052100
     70 HMC2       71.9615   57.9096   44.2497 dc         1 CLA      0.052100
     71 HMC1       73.4420   58.9880   44.1982 dc         1 CLA      0.052100
     72 HMB3       79.5437   61.9293   40.5680 dc         1 CLA      0.063600
     73 HMB2       80.1062   60.2968   40.2493 dc         1 CLA      0.063600
     74 HMB1       79.3434   61.3821   38.9667 dc         1 CLA      0.063600
     75 HMA3       78.9841   56.1996   36.3998 dc         1 CLA      0.058300
     76 HMA2       80.1837   57.0703   35.4702 dc         1 CLA      0.058300
     77 HMA1       79.8448   57.6833   37.0973 dc         1 CLA      0.058300
     78 HED3       76.5543   52.5039   34.3148 dc         1 CLA      0.079300
     79 HED2       75.6340   52.0777   35.7453 dc         1 CLA      0.079300
     80 HED1       74.7397   52.1673   34.2171 dc         1 CLA      0.079300
     81 HBC3       70.9449   55.5751   43.0179 dc         1 CLA      0.016300
     82 HBC2       69.2237   55.3910   42.3303 dc         1 CLA      0.016300
     83 HBC1       70.7235   55.2476   41.2102 dc         1 CLA      0.016300
     84 HBB2       78.6851   61.0417   44.4293 da         1 CLA      0.183000
     85 HBB1       79.4841   60.6668   42.7898 da         1 CLA      0.183000
     86 HBA2       78.2917   57.8669   31.6218 dc         1 CLA      0.029400
     87 HBA1       79.1110   58.1471   33.1339 dc         1 CLA      0.029400
     88 HAC2       69.8775   57.6752   42.8331 dc         1 CLA      0.029300
     89 HAC1       69.5284   57.4000   41.0747 dc         1 CLA      0.029300
     90 HAA2       76.4766   57.2921   32.8698 dc         1 CLA      0.028700
     91 HAA1       76.8789   58.9170   33.3718 dc         1 CLA      0.028700
     92 H203       82.3078   62.5230   44.4568 dc         1 CLA      0.065600
     93 H202       81.3519   61.3609   43.6646 dc         1 CLA      0.065600
     94 H201       81.3461   61.5015   45.4752 dc         1 CLA      0.065600
     95 H193       84.4006   60.7045   42.7172 dc         1 CLA      0.065600
     96 H192       84.5784   61.7788   44.1060 dc         1 CLA      0.065600
     97 H191       85.0638   60.1174   44.2576 dc         1 CLA      0.065600
     98 H172       81.5277   58.9890   44.9160 dc         1 CLA      0.027600
     99 H171       83.0552   58.2571   44.8434 dc         1 CLA      0.027600
    100 H162       83.3163   58.4804   42.4227 dc         1 CLA      0.002900
    101 H161       81.7363   59.1459   42.2276 dc         1 CLA      0.002900
    102 H152       80.8261   57.1521   43.3159 dc         1 CLA      0.029100
    103 H151       82.5190   56.5165   43.1856 dc         1 CLA      0.029100
    104 H143       79.5939   57.5435   40.9270 dc         1 CLA      0.063600
    105 H142       80.8988   58.4286   40.2765 dc         1 CLA      0.063600
    106 H141       80.3773   56.9190   39.4865 dc         1 CLA      0.063600
    107 H122       83.7886   56.1889   41.0525 dc         1 CLA      0.032500
    108 H121       83.2038   57.6483   40.3511 dc         1 CLA      0.032500
    109 H112       82.5041   56.4839   38.3565 dc         1 CLA      0.006600
    110 H111       82.3384   55.0696   39.2903 dc         1 CLA      0.006600
    111 H102       84.6269   54.5405   39.5374 dc         1 CLA      0.024100
    112 H101       85.0709   56.1182   38.9105 dc         1 CLA      0.024100
    113 HHD        70.5321   56.5962   39.1980 da         1 CLA      0.174300
    114 HHC        74.8309   60.0376   42.6499 da         1 CLA      0.136800
    115 HHB        78.9926   59.6229   37.7655 da         1 CLA      0.138300
    116 HBD        74.1904   56.3918   33.1634 dc         1 CLA      0.107700
    117 HAB        76.4598   61.0048   43.2425 da         1 CLA      0.155200
    118 H93        86.4522   55.2943   37.3770 dc         1 CLA      0.069500
    119 H92        86.1654   53.5371   37.5488 dc         1 CLA      0.069500
    120 H91        86.1864   54.1511   35.9793 dc         1 CLA      0.069500
    121 H8         84.1886   55.5618   36.8155 dc         1 CLA      0.029300
    122 H72        82.3640   54.0182   37.0880 dc         1 CLA      0.044400
    123 H71        83.3794   52.7936   37.8369 dc         1 CLA      0.044400
    124 H62        84.5095   52.3372   35.7623 dc         1 CLA      0.015600
    125 H61        83.9127   53.8416   34.9915 dc         1 CLA      0.015600
    126 H52        82.3325   51.5311   35.8664 dc         1 CLA      0.033200
    127 H51        82.8576   51.8292   34.2133 dc         1 CLA      0.033200
    128 H43        79.5034   51.7880   34.7363 dc         1 CLA      0.037000
    129 H42        79.9773   51.6402   36.3778 dc         1 CLA      0.037000
    130 H41        79.0826   52.9691   35.9470 dc         1 CLA      0.037000
    131 H3A        78.6659   58.9512   35.3546 dc         1 CLA      0.041100
    132 H2A        77.5245   56.2406   34.9734 dc         1 CLA      0.083100
    133 H2         81.2221   55.0614   35.2464 da         1 CLA      0.180900
    134 H18        83.2612   60.5921   45.6482 dc         1 CLA     -0.003900
    135 H13        81.3084   55.5055   41.4170 dc         1 CLA      0.019700
    136 H12        80.5164   53.8556   32.6376 dc         1 CLA      0.120400
    137 H11        81.8051   54.9263   32.4741 dc         1 CLA      0.120400
    138 C1         66.8948   61.3258   49.3803 Z1         2 LUT      0.509236
    139 C2         67.2072   62.6001   50.2061 Z2         2 LUT     -0.434695
    140 C3         65.9534   63.5461   50.2943 Z3         2 LUT      0.437453
    141 O3         66.3815   64.9337   50.6864 S1         2 LUT     -0.547129
    142 C4         65.0955   63.5772   48.9702 Z4         2 LUT     -0.468603
    143 C5         65.7059   62.8871   47.7986 Z5         2 LUT      0.279246
    144 C6         66.5779   61.8688   47.9581 Z6         2 LUT     -0.305473
    145 C7         67.4593   61.3411   46.8701 Z7         2 LUT      0.069402
    146 C8         68.5257   61.8896   46.1788 Z8         2 LUT     -0.191631
    147 C9         69.0784   61.5883   44.8423 Z9         2 LUT      0.196698
    148 C10        70.1593   62.3387   44.3719 Y1         2 LUT     -0.208611
    149 C11        70.8533   62.1725   43.1709 Y2         2 LUT      0.030784
    150 C12        71.9894   62.7944   42.9151 Y3         2 LUT     -0.220316
    151 C13        72.8162   62.6561   41.6622 Y4         2 LUT      0.215937
    152 C14        73.9988   63.2685   41.5550 Y5         2 LUT     -0.185793
    153 C15        74.9796   63.2273   40.4928 Y6         2 LUT     -0.057835
    154 C16        65.6857   60.6714   49.9693 Y7         2 LUT     -0.405615
    155 C17        68.1498   60.4225   49.4152 Y7         2 LUT     -0.405615
    156 C18        65.6290   63.8328   46.6193 Y9         2 LUT     -0.369639
    157 C19        68.4458   60.3518   44.1804 W1         2 LUT     -0.333362
    158 C20        72.1127   61.9987   40.5262 W2         2 LUT     -0.323439
    159 C21        85.6361   63.9456   34.2292 Z1         2 LUT      0.406104
    160 C22        86.4901   63.2941   33.1394 Z2         2 LUT     -0.404965
    161 C23        86.8506   64.1876   31.9110 Z3         2 LUT      0.391255
    162 O23        87.5520   63.4777   30.8747 S1         2 LUT     -0.528210
    163 C24        85.6860   65.0433   31.4650 W6         2 LUT     -0.258361
    164 C25        84.6217   65.2025   32.1661 Z5         2 LUT      0.133546
    165 C26        84.4190   64.5860   33.5604 W8         2 LUT     -0.147008
    166 C27        83.6480   65.4274   34.5106 Z7         2 LUT      0.023843
    167 C28        82.6642   64.9020   35.2695 Z8         2 LUT     -0.216987
    168 C29        82.0673   65.4278   36.5168 Z9         2 LUT      0.206524
    169 C30        81.0054   64.7463   37.0036 Y1         2 LUT     -0.215556
    170 C31        80.2642   65.0509   38.1645 Y2         2 LUT      0.025142
    171 C32        79.0185   64.5795   38.3411 Y3         2 LUT     -0.212209
    172 C33        78.2747   64.7498   39.5694 Y4         2 LUT      0.240937
    173 C34        77.1484   63.9281   39.6733 Y5         2 LUT     -0.218862
    174 C35        76.0299   64.0438   40.5675 Y6         2 LUT     -0.023547
    175 C36        86.5312   64.9943   35.0069 Y7         2 LUT     -0.393485
    176 C37        85.3145   62.8587   35.3755 Y7         2 LUT     -0.393485
    177 C38        83.5260   66.1190   31.6884 Y9         2 LUT     -0.387526
    178 C39        82.5476   66.7684   37.0895 W1         2 LUT     -0.322618
    179 C40        78.6094   65.8384   40.5363 W2         2 LUT     -0.358472
    180 H403       79.6374   65.7981   40.9067 R7         2 LUT      0.097720
    181 H402       78.5370   66.8606   40.1230 R7         2 LUT      0.097720
    182 H401       78.1209   65.6396   41.4096 R7         2 LUT      0.097720
    183 H393       83.6160   66.9002   37.0130 R4         2 LUT      0.082505
    184 H392       82.0221   67.6224   36.6190 R4         2 LUT      0.082505
    185 H391       82.4341   66.9678   38.1612 R4         2 LUT      0.082505
    186 H383       83.6703   66.3981   30.5883 R1         2 LUT      0.104030
    187 H382       82.4883   65.6172   31.5815 R1         2 LUT      0.104030
    188 H381       83.4247   67.0953   32.2187 R1         2 LUT      0.104030
    189 H373       84.7168   63.3169   36.1950 T4         2 LUT      0.089537
    190 H372       84.6639   62.0257   34.9002 T4         2 LUT      0.089537
    191 H371       86.2118   62.3091   35.7235 T4         2 LUT      0.089537
    192 H363       87.4330   64.4426   35.4139 T4         2 LUT      0.089537
    193 H362       87.0417   65.7881   34.3925 T4         2 LUT      0.089537
    194 H361       85.9599   65.5919   35.7462 T4         2 LUT      0.089537
    195 H222       87.5423   63.0135   33.3520 U2         2 LUT      0.127376
    196 H221       86.0476   62.3515   32.8075 U2         2 LUT      0.127376
    197 H203       71.1592   62.5554   40.3669 R7         2 LUT      0.087068
    198 H202       72.6113   62.1538   39.6353 R7         2 LUT      0.087068
    199 H201       71.8704   60.9163   40.6688 R7         2 LUT      0.087068
    200 H193       69.1556   59.8345   43.4639 R4         2 LUT      0.089716
    201 H192       68.2396   59.4555   44.8357 R4         2 LUT      0.089716
    202 H191       67.5357   60.6047   43.6121 R4         2 LUT      0.089716
    203 H183       66.3203   64.6741   46.5692 R1         2 LUT      0.094572
    204 H182       65.8391   63.1833   45.7436 R1         2 LUT      0.094572
    205 H181       64.6560   64.3385   46.6429 R1         2 LUT      0.094572
    206 H173       68.9454   60.8693   48.8813 T4         2 LUT      0.093752
    207 H172       68.5797   60.2615   50.3871 T4         2 LUT      0.093752
    208 H171       67.9327   59.4269   48.9219 T4         2 LUT      0.093752
    209 H163       65.5997   60.8531   51.0686 T4         2 LUT      0.093752
    210 H162       64.7045   61.0357   49.5859 T4         2 LUT      0.093752
    211 H161       65.7630   59.5503   49.9622 T4         2 LUT      0.093752
    212 HO3        65.6057   65.4211   51.0097 Q1         2 LUT      0.300121
    213 H8         68.9050   62.8217   46.6892 U7         2 LUT      0.080784
    214 H7         66.8939   60.5795   46.3394 U6         2 LUT      0.042190
    215 H42        64.1618   63.0039   49.2140 U5         2 LUT      0.145166
    216 H41        64.6340   64.5620   48.7025 U5         2 LUT      0.145166
    217 H35        76.0205   64.7813   41.3704 T3         2 LUT      0.077919
    218 H34        76.9529   63.1558   38.8837 T2         2 LUT      0.073626
    219 H32        78.6223   63.8336   37.6261 T1         2 LUT      0.092510
    220 H31        80.7350   65.6527   38.9167 U9         2 LUT      0.070048
    221 H30        80.6283   63.9403   36.4385 U8         2 LUT      0.085442
    222 H3         65.2949   63.1409   51.1150 U3         2 LUT     -0.031596
    223 H28        82.5079   63.8505   34.8908 U7         2 LUT      0.084728
    224 H27        84.0548   66.4248   34.7658 U6         2 LUT      0.087291
    225 H26        83.7179   63.7990   33.2767 Q6         2 LUT      0.075325
    226 H24        85.7608   65.5832   30.5444 Q5         2 LUT      0.094482
    227 H23        87.4743   64.9805   32.2892 U3         2 LUT     -0.024869
    228 H22        67.5584   62.4237   51.2563 U2         2 LUT      0.127376
    229 H21        68.0855   63.1203   49.8458 U2         2 LUT      0.127376
    230 H15        74.9656   62.4179   39.6980 T3         2 LUT      0.093200
    231 H14        74.2668   63.7920   42.4494 T2         2 LUT      0.068865
    232 H12        72.2947   63.5695   43.6874 T1         2 LUT      0.095507
    233 H11        70.4591   61.4131   42.5296 U9         2 LUT      0.068930
    234 H10        70.5471   63.1213   45.0225 U8         2 LUT      0.083911
    235 H1         87.3428   63.5355   29.9312 Q1         2 LUT      0.297311
@<TRIPOS>BOND
    1     6     1 1
    2     7     2 1
    3     8     3 1
    4     9     4 1
    5    11     4 1
    6    12     6 1
    7    13     9 1
    8    16     9 1
    9    25     5 1
   10    25    16 1
   11    26    10 1
   12    26    17 1
   13    27    18 1
   14    28    14 1
   15    28    19 1
   16    29    12 1
   17    30    13 1
   18    31    24 1
   19    32     1 1
   20    32    25 1
   21    33    21 1
   22    33    26 1
   23    34    22 1
   24    34    27 1
   25    35    23 1
   26    35    28 1
   27    36    12 1
   28    36    24 1
   29    37    13 1
   30    37    15 1
   31    38    31 1
   32    39    20 1
   33    39    32 1
   34    40     2 1
   35    40    33 1
   36    41     3 1
   37    41    34 1
   38    42     4 1
   39    42    35 1
   40    43    38 1
   41    44     5 1
   42    44    17 1
   43    44    39 1
   44    45    10 1
   45    45    18 1
   46    45    40 1
   47    46    19 1
   48    46    41 1
   49    47    14 1
   50    47    16 1
   51    47    42 1
   52    48    38 1
   53    49    48 1
   54    50    49 1
   55    51    50 1
   56    52    51 1
   57    53    51 1
   58    54    53 1
   59    55    54 1
   60    56    55 1
   61    57    56 1
   62    58    56 1
   63    59    58 1
   64    60    59 1
   65    61    60 1
   66    62    61 1
   67    63    61 1
   68    64    27 1
   69    64    46 1
   70    65     5 1
   71    65    10 1
   72    65    64 1
   73    65    14 1
   74    66    23 1
   75    67    23 1
   76    68    23 1
   77    69    22 1
   78    70    22 1
   79    71    22 1
   80    72    21 1
   81    73    21 1
   82    74    21 1
   83    75    20 1
   84    76    20 1
   85    77    20 1
   86    78    15 1
   87    79    15 1
   88    80    15 1
   89    81     8 1
   90    82     8 1
   91    83     8 1
   92    84     7 1
   93    85     7 1
   94    86     6 1
   95    87     6 1
   96    88     3 1
   97    89     3 1
   98    90     1 1
   99    91     1 1
  100    92    63 1
  101    93    63 1
  102    94    63 1
  103    95    62 1
  104    96    62 1
  105    97    62 1
  106    98    60 1
  107    99    60 1
  108   100    59 1
  109   101    59 1
  110   102    58 1
  111   103    58 1
  112   104    57 1
  113   105    57 1
  114   106    57 1
  115   107    55 1
  116   108    55 1
  117   109    54 1
  118   110    54 1
  119   111    53 1
  120   112    53 1
  121   113    19 1
  122   114    18 1
  123   115    17 1
  124   116     9 1
  125   117     2 1
  126   118    52 1
  127   119    52 1
  128   120    52 1
  129   121    51 1
  130   122    50 1
  131   123    50 1
  132   124    49 1
  133   125    49 1
  134   126    48 1
  135   127    48 1
  136   128    43 1
  137   129    43 1
  138   130    43 1
  139   131    39 1
  140   132    32 1
  141   133    31 1
  142   134    61 1
  143   135    56 1
  144   136    24 1
  145   137    24 1
  146   139   138 1
  147   140   139 1
  148   141   140 1
  149   142   140 1
  150   143   142 1
  151   144   138 1
  152   144   143 1
  153   145   144 1
  154   146   145 1
  155   147   146 1
  156   148   147 1
  157   149   148 1
  158   150   149 1
  159   151   150 1
  160   152   151 1
  161   153   152 1
  162   154   138 1
  163   155   138 1
  164   156   143 1
  165   157   147 1
  166   158   151 1
  167   160   159 1
  168   161   160 1
  169   162   161 1
  170   163   161 1
  171   164   163 1
  172   165   159 1
  173   165   164 1
  174   166   165 1
  175   167   166 1
  176   168   167 1
  177   169   168 1
  178   170   169 1
  179   171   170 1
  180   172   171 1
  181   173   172 1
  182   174   153 1
  183   174   173 1
  184   175   159 1
  185   176   159 1
  186   177   164 1
  187   178   168 1
  188   179   172 1
  189   180   179 1
  190   181   179 1
  191   182   179 1
  192   183   178 1
  193   184   178 1
  194   185   178 1
  195   186   177 1
  196   187   177 1
  197   188   177 1
  198   189   176 1
  199   190   176 1
  200   191   176 1
  201   192   175 1
  202   193   175 1
  203   194   175 1
  204   195   160 1
  205   196   160 1
  206   197   158 1
  207   198   158 1
  208   199   158 1
  209   200   157 1
  210   201   157 1
  211   202   157 1
  212   203   156 1
  213   204   156 1
  214   205   156 1
  215   206   155 1
  216   207   155 1
  217   208   155 1
  218   209   154 1
  219   210   154 1
  220   211   154 1
  221   212   141 1
  222   213   146 1
  223   214   145 1
  224   215   142 1
  225   216   142 1
  226   217   174 1
  227   218   173 1
  228   219   171 1
  229   220   170 1
  230   221   169 1
  231   222   140 1
  232   223   167 1
  233   224   166 1
  234   225   165 1
  235   226   163 1
  236   227   161 1
  237   228   139 1
  238   229   139 1
  239   230   153 1
  240   231   152 1
  241   232   150 1
  242   233   149 1
  243   234   148 1
  244   235   162 1
  245   65    153 1
  246   65    174 1
@<TRIPOS>SUBSTRUCTURE
      1 CLA               1 ****               0 ****  **** 
      2 LUT             138 ****               0 ****  **** 
