@<TRIPOS>MOLECULE
Cpptraj generated mol2 file.
  235   246     2     0     0
SMALL
USER_CHARGES


@<TRIPOS>ATOM
      1 CAA        79.0142   57.7881   34.4990 a2         1 CLA     -0.055900
      2 CAB        77.9294   61.3622   43.5516 c8         1 CLA     -0.148500
      3 CAC        71.5686   56.4341   42.4014 a2         1 CLA     -0.012600
      4 CAD        75.0487   54.8798   35.2403 ck         1 CLA      0.398800
      5 NA         77.8150   57.9316   37.8783 ns         1 CLA     -0.225500
      6 CBA        80.3265   57.8324   33.6629 a2         1 CLA     -0.135000
      7 CBB        78.9420   61.5970   44.3939 c0         1 CLA     -0.395200
      8 CBC        71.7125   54.9179   42.5896 a3         1 CLA     -0.037700
      9 CBD        76.5824   55.4368   35.1264 a1         1 CLA     -0.053900
     10 NB         77.3199   59.3264   40.5286 nm         1 CLA     -0.295700
     11 OBD        74.4687   54.2039   34.4307 o2         1 CLA     -0.494600
     12 CGA        81.1236   56.4996   33.3863 c4         1 CLA      0.827000
     13 CGD        77.6682   54.3633   35.0400 c4         1 CLA      0.655300
     14 ND         75.1087   56.7356   38.2959 nm         1 CLA     -0.291600
     15 CED        78.2724   52.0894   35.6637 a3         1 CLA      0.005400
     16 CHA        76.7863   56.3887   36.3686 cs         1 CLA     -0.123800
     17 CHB        79.3076   59.4178   39.0270 aa         1 CLA     -0.291900
     18 CHC        75.7304   59.4763   42.4086 aa         1 CLA     -0.090400
     19 CHD        73.1678   56.4210   39.7367 aa         1 CLA     -0.052000
     20 CMA        81.4052   57.4571   37.3260 a3         1 CLA     -0.230700
     21 CMB        80.4883   61.2050   41.3144 a3         1 CLA     -0.180800
     22 CMC        73.3606   58.5075   44.2949 a3         1 CLA     -0.134000
     23 CMD        72.2524   54.5684   37.2809 a3         1 CLA     -0.141100
     24 C1         82.2859   54.5545   34.3787 a2         1 CLA      0.023000
     25 C1A        77.8386   57.1979   36.7422 ac         1 CLA     -0.015100
     26 C1B        78.5713   59.7732   40.1930 cr         1 CLA      0.054700
     27 C1C        74.7277   58.6047   42.0353 cn         1 CLA     -0.005600
     28 C1D        73.8484   56.1764   38.5096 ap         1 CLA     -0.047300
     29 O1A        81.1861   56.0087   32.2636 o2         1 CLA     -0.610800
     30 O1D        78.7357   54.4898   34.4474 o2         1 CLA     -0.558200
     31 C2         82.1020   53.9513   35.7854 c8         1 CLA     -0.325100
     32 C2A        79.1656   57.3481   35.9618 a1         1 CLA      0.098600
     33 C2B        79.0434   60.5904   41.2847 cb         1 CLA      0.088500
     34 C2C        73.5958   58.1602   42.8745 cb         1 CLA      0.053700
     35 C2D        73.5843   55.2878   37.4389 cb         1 CLA      0.058900
     36 O2A        81.7189   55.9367   34.5120 o1         1 CLA     -0.437200
     37 O2D        77.2641   53.1940   35.6520 o1         1 CLA     -0.357600
     38 C3         82.9702   53.0204   36.2728 c5         1 CLA      0.031200
     39 C3A        80.0588   58.1739   36.8896 a1         1 CLA      0.166800
     40 C3B        78.0048   60.7078   42.2792 cb         1 CLA      0.035000
     41 C3C        72.8780   57.2432   42.0520 cb         1 CLA     -0.089900
     42 C3D        74.6145   55.3247   36.5457 cb         1 CLA     -0.035900
     43 C4         82.6651   51.5513   36.3533 a3         1 CLA     -0.053300
     44 C4A        79.0240   58.5562   38.0088 ac         1 CLA      0.001800
     45 C4B        76.9156   59.8610   41.7326 cn         1 CLA     -0.020900
     46 C4C        73.5853   57.2111   40.8152 cr         1 CLA     -0.044400
     47 C4D        75.5915   56.1893   37.1233 c6         1 CLA     -0.046000
     48 C5         84.0436   53.5704   37.1891 a2         1 CLA     -0.070400
     49 C6         84.1047   55.1109   37.3816 a2         1 CLA      0.043900
     50 C7         85.2944   55.4991   38.2578 a2         1 CLA     -0.150000
     51 C8         85.4289   57.0567   38.3654 a1         1 CLA      0.064200
     52 C9         86.4157   57.5777   37.2904 a3         1 CLA     -0.259300
     53 C10        85.7744   57.5110   39.7925 a2         1 CLA     -0.071900
     54 C11        84.5764   57.9063   40.6314 a2         1 CLA      0.014500
     55 C12        84.8691   58.6732   41.9538 a2         1 CLA     -0.112100
     56 C13        85.5608   57.9445   43.1589 a1         1 CLA      0.089200
     57 C14        84.9270   56.5334   43.4539 a3         1 CLA     -0.239100
     58 C15        85.7483   58.8495   44.4676 a2         1 CLA     -0.102200
     59 C16        84.5008   59.7027   44.9217 a2         1 CLA      0.023900
     60 C17        84.6948   60.2751   46.3335 a2         1 CLA     -0.105700
     61 C18        83.6199   61.2177   46.7864 a1         1 CLA      0.206800
     62 C19        82.3269   60.4373   47.1460 a3         1 CLA     -0.280100
     63 C20        84.0710   62.1167   47.9232 a3         1 CLA     -0.280100
     64 NC         74.7045   57.9090   40.8680 nx         1 CLA     -0.309200
     65 MG         76.1547   58.0751   39.3219 mg         1 CLA      0.895000
     66 HMD3       72.1578   54.4579   36.2113 dc         1 CLA      0.064300
     67 HMD2       72.1581   53.6175   37.7348 dc         1 CLA      0.064300
     68 HMD1       71.4969   55.2630   37.7444 dc         1 CLA      0.064300
     69 HMC3       74.3707   58.6141   44.7541 dc         1 CLA      0.052100
     70 HMC2       72.7919   59.3701   44.3006 dc         1 CLA      0.052100
     71 HMC1       72.8798   57.7424   44.7309 dc         1 CLA      0.052100
     72 HMB3       80.8807   61.4430   40.3400 dc         1 CLA      0.063600
     73 HMB2       80.4982   62.1447   41.7878 dc         1 CLA      0.063600
     74 HMB1       81.1059   60.5549   41.8770 dc         1 CLA      0.063600
     75 HMA3       81.9518   58.0522   38.0499 dc         1 CLA      0.058300
     76 HMA2       81.2280   56.4914   37.7939 dc         1 CLA      0.058300
     77 HMA1       82.0557   57.1826   36.5018 dc         1 CLA      0.058300
     78 HED3       79.0321   52.2428   36.4303 dc         1 CLA      0.079300
     79 HED2       77.6709   51.1682   35.8221 dc         1 CLA      0.079300
     80 HED1       78.8116   51.9049   34.7126 dc         1 CLA      0.079300
     81 HBC3       71.8373   54.4293   41.6710 dc         1 CLA      0.016300
     82 HBC2       72.5139   54.5676   43.1988 dc         1 CLA      0.016300
     83 HBC1       70.7348   54.6916   42.8833 dc         1 CLA      0.016300
     84 HBB2       78.7176   61.9835   45.4414 da         1 CLA      0.183000
     85 HBB1       79.9968   61.2490   44.3064 da         1 CLA      0.183000
     86 HBA2       80.0834   58.2638   32.7095 dc         1 CLA      0.029400
     87 HBA1       81.1281   58.4237   34.2083 dc         1 CLA      0.029400
     88 HAC2       70.9902   56.8735   43.2534 dc         1 CLA      0.029300
     89 HAC1       70.8268   56.4631   41.5651 dc         1 CLA      0.029300
     90 HAA2       78.2672   57.2239   33.9312 dc         1 CLA      0.028700
     91 HAA1       78.6300   58.8353   34.6156 dc         1 CLA      0.028700
     92 H203       83.2772   62.8182   48.1132 dc         1 CLA      0.065600
     93 H202       84.4476   61.6572   48.8441 dc         1 CLA      0.065600
     94 H201       84.9350   62.6297   47.5246 dc         1 CLA      0.065600
     95 H193       82.3788   59.9046   48.0788 dc         1 CLA      0.065600
     96 H192       81.4279   61.0919   47.2722 dc         1 CLA      0.065600
     97 H191       82.0302   59.7600   46.3395 dc         1 CLA      0.065600
     98 H172       84.8026   59.5364   47.1636 dc         1 CLA      0.027600
     99 H171       85.6989   60.7274   46.3159 dc         1 CLA      0.027600
    100 H162       84.3753   60.5149   44.2106 dc         1 CLA      0.002900
    101 H161       83.5801   59.1197   44.8966 dc         1 CLA      0.002900
    102 H152       85.9343   58.1707   45.2693 dc         1 CLA      0.029100
    103 H151       86.5728   59.5522   44.3182 dc         1 CLA      0.029100
    104 H143       85.7351   55.8907   43.8997 dc         1 CLA      0.063600
    105 H142       84.1987   56.6496   44.2560 dc         1 CLA      0.063600
    106 H141       84.4785   56.0392   42.5943 dc         1 CLA      0.063600
    107 H122       85.4165   59.5694   41.8059 dc         1 CLA      0.032500
    108 H121       83.9454   59.0418   42.2359 dc         1 CLA      0.032500
    109 H112       83.9943   58.5094   40.0338 dc         1 CLA      0.006600
    110 H111       84.1143   56.9654   40.7331 dc         1 CLA      0.006600
    111 H102       86.3906   56.7718   40.2955 dc         1 CLA      0.024100
    112 H101       86.3410   58.4069   39.7706 dc         1 CLA      0.024100
    113 HHD        72.2660   55.8026   39.8051 da         1 CLA      0.174300
    114 HHC        75.5853   59.9095   43.3600 da         1 CLA      0.136800
    115 HHB        80.3715   59.6634   38.9259 da         1 CLA      0.138300
    116 HBD        76.7237   55.9338   34.0839 dc         1 CLA      0.107700
    117 HAB        76.9367   61.6152   43.9432 da         1 CLA      0.155200
    118 H93        86.2206   57.1458   36.2763 dc         1 CLA      0.069500
    119 H92        86.2753   58.6305   37.1820 dc         1 CLA      0.069500
    120 H91        87.4147   57.2794   37.6647 dc         1 CLA      0.069500
    121 H8         84.5056   57.5867   38.1371 dc         1 CLA      0.029300
    122 H72        85.2598   54.9937   39.1743 dc         1 CLA      0.044400
    123 H71        86.1888   55.0942   37.7649 dc         1 CLA      0.044400
    124 H62        84.1803   55.5876   36.3935 dc         1 CLA      0.015600
    125 H61        83.1701   55.3500   37.8647 dc         1 CLA      0.015600
    126 H52        83.9500   53.1075   38.1587 dc         1 CLA      0.033200
    127 H51        85.0541   53.3450   36.8051 dc         1 CLA      0.033200
    128 H43        82.7932   51.3237   37.4610 dc         1 CLA      0.037000
    129 H42        81.6798   51.5270   35.9773 dc         1 CLA      0.037000
    130 H41        83.3443   50.9573   35.6885 dc         1 CLA      0.037000
    131 H3A        80.2491   59.0944   36.2712 dc         1 CLA      0.041100
    132 H2A        79.6640   56.4167   35.9793 dc         1 CLA      0.083100
    133 H2         81.2650   54.3126   36.4310 da         1 CLA      0.180900
    134 H18        83.3694   61.7895   45.9509 dc         1 CLA     -0.003900
    135 H13        86.5199   57.7559   42.7890 dc         1 CLA      0.019700
    136 H12        81.5959   53.9966   33.7127 dc         1 CLA      0.120400
    137 H11        83.2291   54.3892   33.9232 dc         1 CLA      0.120400
    138 C1         68.4426   60.6683   50.3651 Z1         2 LUT      0.509236
    139 C2         67.0545   60.5153   51.1373 Z2         2 LUT     -0.434695
    140 C3         66.4497   61.8983   51.3043 Z3         2 LUT      0.437453
    141 O3         66.9472   62.6700   52.3932 S1         2 LUT     -0.547129
    142 C4         66.5614   62.7622   50.0665 Z4         2 LUT     -0.468603
    143 C5         67.2547   62.2492   48.8611 Z5         2 LUT      0.279246
    144 C6         68.2457   61.3728   48.9540 Z6         2 LUT     -0.305473
    145 C7         68.7103   60.6272   47.7655 Z7         2 LUT      0.069402
    146 C8         69.8505   60.9847   47.1533 Z8         2 LUT     -0.191631
    147 C9         70.2318   60.8149   45.7389 Z9         2 LUT      0.196698
    148 C10        71.1594   61.7035   45.1885 Y1         2 LUT     -0.208611
    149 C11        71.6115   61.8067   43.8738 Y2         2 LUT      0.030784
    150 C12        72.7713   62.4400   43.6652 Y3         2 LUT     -0.220316
    151 C13        73.5961   62.6283   42.4883 Y4         2 LUT      0.215937
    152 C14        74.7415   63.4200   42.5965 Y5         2 LUT     -0.185793
    153 C15        75.8195   63.4435   41.6693 Y6         2 LUT     -0.057835
    154 C16        69.0872   59.2969   50.2798 Y7         2 LUT     -0.405615
    155 C17        69.3802   61.5712   51.2287 Y7         2 LUT     -0.405615
    156 C18        66.8549   62.8748   47.5286 Y9         2 LUT     -0.369639
    157 C19        69.6371   59.7022   44.9127 W1         2 LUT     -0.333362
    158 C20        73.1139   62.0732   41.1651 W2         2 LUT     -0.323439
    159 C21        87.1604   64.5064   35.0604 Z1         2 LUT      0.406104
    160 C22        88.0336   64.3456   33.8526 Z2         2 LUT     -0.404965
    161 C23        88.0613   65.5501   32.9328 Z3         2 LUT      0.391255
    162 O23        88.7525   65.1061   31.7692 S1         2 LUT     -0.528210
    163 C24        86.7037   66.2802   32.8678 W6         2 LUT     -0.258361
    164 C25        85.6210   66.0468   33.5995 Z5         2 LUT      0.133546
    165 C26        85.6412   65.0723   34.8284 W8         2 LUT     -0.147008
    166 C27        84.9384   65.6220   36.0569 Z7         2 LUT      0.023843
    167 C28        83.8004   65.2158   36.6780 Z8         2 LUT     -0.216987
    168 C29        83.3282   65.6503   37.9805 Z9         2 LUT      0.206524
    169 C30        82.1430   64.9814   38.3495 Y1         2 LUT     -0.215556
    170 C31        81.2461   65.3293   39.4299 Y2         2 LUT      0.025142
    171 C32        80.1460   64.6278   39.7563 Y3         2 LUT     -0.212209
    172 C33        79.2772   64.8580   40.8750 Y4         2 LUT      0.240937
    173 C34        78.0762   64.1776   40.9217 Y5         2 LUT     -0.218862
    174 C35        76.9887   64.1745   41.8905 Y6         2 LUT     -0.023547
    175 C36        87.9003   65.4608   36.1020 Y7         2 LUT     -0.393485
    176 C37        87.2175   63.1100   35.6904 Y7         2 LUT     -0.393485
    177 C38        84.3098   66.6398   33.2061 Y9         2 LUT     -0.387526
    178 C39        83.9463   66.8513   38.6320 W1         2 LUT     -0.322618
    179 C40        79.6073   66.0837   41.7070 W2         2 LUT     -0.358472
    180 H403       79.1193   66.0307   42.6714 R7         2 LUT      0.097720
    181 H402       80.6170   66.2551   42.0789 R7         2 LUT      0.097720
    182 H401       79.3047   67.0303   41.1572 R7         2 LUT      0.097720
    183 H393       83.7348   66.7794   39.6973 R4         2 LUT      0.082505
    184 H392       85.0390   66.7899   38.5772 R4         2 LUT      0.082505
    185 H391       83.6426   67.8081   38.2764 R4         2 LUT      0.082505
    186 H383       83.6063   65.8052   33.2099 R1         2 LUT      0.104030
    187 H382       83.9560   67.5288   33.7631 R1         2 LUT      0.104030
    188 H381       84.4445   66.8398   32.1700 R1         2 LUT      0.104030
    189 H373       86.5059   62.3901   35.2738 T4         2 LUT      0.089537
    190 H372       88.2492   62.6772   35.7858 T4         2 LUT      0.089537
    191 H371       86.8436   63.1572   36.7054 T4         2 LUT      0.089537
    192 H363       88.9792   65.3219   36.2351 T4         2 LUT      0.089537
    193 H362       87.7737   66.5377   35.8251 T4         2 LUT      0.089537
    194 H361       87.4015   65.3959   37.0745 T4         2 LUT      0.089537
    195 H222       89.0853   64.0974   34.0130 U2         2 LUT      0.127376
    196 H221       87.5521   63.5333   33.3000 U2         2 LUT      0.127376
    197 H203       72.2561   62.5912   40.7011 R7         2 LUT      0.087068
    198 H202       73.8988   62.0482   40.4196 R7         2 LUT      0.087068
    199 H201       72.8317   61.0399   41.2360 R7         2 LUT      0.087068
    200 H193       69.1561   59.9573   43.9777 R4         2 LUT      0.089716
    201 H192       70.4273   58.9313   44.7395 R4         2 LUT      0.089716
    202 H191       68.8895   59.1832   45.4904 R4         2 LUT      0.089716
    203 H183       67.4132   63.8041   47.3848 R1         2 LUT      0.094572
    204 H182       67.1142   62.2592   46.7267 R1         2 LUT      0.094572
    205 H181       65.8092   63.0132   47.4915 R1         2 LUT      0.094572
    206 H173       69.4625   61.2902   52.3702 T4         2 LUT      0.093752
    207 H172       70.3726   61.5209   50.8247 T4         2 LUT      0.093752
    208 H171       69.0485   62.5785   51.1282 T4         2 LUT      0.093752
    209 H163       68.5497   58.6711   49.5834 T4         2 LUT      0.093752
    210 H162       70.0907   59.3033   49.8763 T4         2 LUT      0.093752
    211 H161       69.0844   58.7756   51.2270 T4         2 LUT      0.093752
    212 HO3        66.4398   62.4818   53.1908 Q1         2 LUT      0.300121
    213 H8         70.2897   61.8390   47.6391 U7         2 LUT      0.080784
    214 H7         68.0103   59.9884   47.1968 U6         2 LUT      0.042190
    215 H42        65.5191   62.9943   49.7143 U5         2 LUT      0.145166
    216 H41        66.9449   63.7269   50.3592 U5         2 LUT      0.145166
    217 H35        76.9381   64.8818   42.7372 T3         2 LUT      0.077919
    218 H34        77.8055   63.5693   39.9510 T2         2 LUT      0.073626
    219 H32        79.7785   63.8358   39.0808 T1         2 LUT      0.092510
    220 H31        81.6224   66.1582   40.0383 U9         2 LUT      0.070048
    221 H30        81.8432   64.0881   37.7733 U8         2 LUT      0.085442
    222 H3         65.3780   61.8650   51.4640 U3         2 LUT     -0.031596
    223 H28        83.2561   64.2986   36.2027 U7         2 LUT      0.084728
    224 H27        85.4022   66.4665   36.5422 U6         2 LUT      0.087291
    225 H26        84.9627   64.1685   34.7336 Q6         2 LUT      0.075325
    226 H24        86.5633   66.9367   32.0290 Q5         2 LUT      0.094482
    227 H23        88.6193   66.2802   33.5356 U3         2 LUT     -0.024869
    228 H22        66.3375   60.0076   50.5643 U2         2 LUT      0.127376
    229 H21        67.1990   59.9895   52.1063 U2         2 LUT      0.127376
    230 H15        75.7893   62.8294   40.7724 T3         2 LUT      0.093200
    231 H14        74.7731   63.8978   43.6585 T2         2 LUT      0.068865
    232 H12        73.1205   62.9936   44.5500 T1         2 LUT      0.095507
    233 H11        71.0201   61.3088   43.0803 U9         2 LUT      0.068930
    234 H10        71.5051   62.3458   45.9459 U8         2 LUT      0.083911
    235 H1         88.0820   64.9041   31.0919 Q1         2 LUT      0.297311
@<TRIPOS>BOND
    1     6     1 1
    2     7     2 1
    3     8     3 1
    4     9     4 1
    5    11     4 1
    6    12     6 1
    7    13     9 1
    8    16     9 1
    9    25     5 1
   10    25    16 1
   11    26    10 1
   12    26    17 1
   13    27    18 1
   14    28    14 1
   15    28    19 1
   16    29    12 1
   17    30    13 1
   18    31    24 1
   19    32     1 1
   20    32    25 1
   21    33    21 1
   22    33    26 1
   23    34    22 1
   24    34    27 1
   25    35    23 1
   26    35    28 1
   27    36    12 1
   28    36    24 1
   29    37    13 1
   30    37    15 1
   31    38    31 1
   32    39    20 1
   33    39    32 1
   34    40     2 1
   35    40    33 1
   36    41     3 1
   37    41    34 1
   38    42     4 1
   39    42    35 1
   40    43    38 1
   41    44     5 1
   42    44    17 1
   43    44    39 1
   44    45    10 1
   45    45    18 1
   46    45    40 1
   47    46    19 1
   48    46    41 1
   49    47    14 1
   50    47    16 1
   51    47    42 1
   52    48    38 1
   53    49    48 1
   54    50    49 1
   55    51    50 1
   56    52    51 1
   57    53    51 1
   58    54    53 1
   59    55    54 1
   60    56    55 1
   61    57    56 1
   62    58    56 1
   63    59    58 1
   64    60    59 1
   65    61    60 1
   66    62    61 1
   67    63    61 1
   68    64    27 1
   69    64    46 1
   70    65     5 1
   71    65    10 1
   72    65    64 1
   73    65    14 1
   74    66    23 1
   75    67    23 1
   76    68    23 1
   77    69    22 1
   78    70    22 1
   79    71    22 1
   80    72    21 1
   81    73    21 1
   82    74    21 1
   83    75    20 1
   84    76    20 1
   85    77    20 1
   86    78    15 1
   87    79    15 1
   88    80    15 1
   89    81     8 1
   90    82     8 1
   91    83     8 1
   92    84     7 1
   93    85     7 1
   94    86     6 1
   95    87     6 1
   96    88     3 1
   97    89     3 1
   98    90     1 1
   99    91     1 1
  100    92    63 1
  101    93    63 1
  102    94    63 1
  103    95    62 1
  104    96    62 1
  105    97    62 1
  106    98    60 1
  107    99    60 1
  108   100    59 1
  109   101    59 1
  110   102    58 1
  111   103    58 1
  112   104    57 1
  113   105    57 1
  114   106    57 1
  115   107    55 1
  116   108    55 1
  117   109    54 1
  118   110    54 1
  119   111    53 1
  120   112    53 1
  121   113    19 1
  122   114    18 1
  123   115    17 1
  124   116     9 1
  125   117     2 1
  126   118    52 1
  127   119    52 1
  128   120    52 1
  129   121    51 1
  130   122    50 1
  131   123    50 1
  132   124    49 1
  133   125    49 1
  134   126    48 1
  135   127    48 1
  136   128    43 1
  137   129    43 1
  138   130    43 1
  139   131    39 1
  140   132    32 1
  141   133    31 1
  142   134    61 1
  143   135    56 1
  144   136    24 1
  145   137    24 1
  146   139   138 1
  147   140   139 1
  148   141   140 1
  149   142   140 1
  150   143   142 1
  151   144   138 1
  152   144   143 1
  153   145   144 1
  154   146   145 1
  155   147   146 1
  156   148   147 1
  157   149   148 1
  158   150   149 1
  159   151   150 1
  160   152   151 1
  161   153   152 1
  162   154   138 1
  163   155   138 1
  164   156   143 1
  165   157   147 1
  166   158   151 1
  167   160   159 1
  168   161   160 1
  169   162   161 1
  170   163   161 1
  171   164   163 1
  172   165   159 1
  173   165   164 1
  174   166   165 1
  175   167   166 1
  176   168   167 1
  177   169   168 1
  178   170   169 1
  179   171   170 1
  180   172   171 1
  181   173   172 1
  182   174   153 1
  183   174   173 1
  184   175   159 1
  185   176   159 1
  186   177   164 1
  187   178   168 1
  188   179   172 1
  189   180   179 1
  190   181   179 1
  191   182   179 1
  192   183   178 1
  193   184   178 1
  194   185   178 1
  195   186   177 1
  196   187   177 1
  197   188   177 1
  198   189   176 1
  199   190   176 1
  200   191   176 1
  201   192   175 1
  202   193   175 1
  203   194   175 1
  204   195   160 1
  205   196   160 1
  206   197   158 1
  207   198   158 1
  208   199   158 1
  209   200   157 1
  210   201   157 1
  211   202   157 1
  212   203   156 1
  213   204   156 1
  214   205   156 1
  215   206   155 1
  216   207   155 1
  217   208   155 1
  218   209   154 1
  219   210   154 1
  220   211   154 1
  221   212   141 1
  222   213   146 1
  223   214   145 1
  224   215   142 1
  225   216   142 1
  226   217   174 1
  227   218   173 1
  228   219   171 1
  229   220   170 1
  230   221   169 1
  231   222   140 1
  232   223   167 1
  233   224   166 1
  234   225   165 1
  235   226   163 1
  236   227   161 1
  237   228   139 1
  238   229   139 1
  239   230   153 1
  240   231   152 1
  241   232   150 1
  242   233   149 1
  243   234   148 1
  244   235   162 1
  245   65    153 1
  246   65    174 1
@<TRIPOS>SUBSTRUCTURE
      1 CLA               1 ****               0 ****  **** 
      2 LUT             138 ****               0 ****  **** 
