@<TRIPOS>MOLECULE
Cpptraj generated mol2 file.
  235   246     2     0     0
SMALL
USER_CHARGES


@<TRIPOS>ATOM
      1 CAA        79.3362   58.6513   34.1089 a2         1 CLA     -0.055900
      2 CAB        79.1362   62.1939   43.1928 c8         1 CLA     -0.148500
      3 CAC        72.1521   58.4180   42.4729 a2         1 CLA     -0.012600
      4 CAD        75.0558   56.3842   35.0221 ck         1 CLA      0.398800
      5 NA         78.2992   58.9543   37.4937 ns         1 CLA     -0.225500
      6 CBA        80.5682   58.4926   33.2067 a2         1 CLA     -0.135000
      7 CBB        80.1557   62.1023   44.0763 c0         1 CLA     -0.395200
      8 CBC        72.2111   56.9117   42.6570 a3         1 CLA     -0.037700
      9 CBD        76.4746   56.9371   34.7053 a1         1 CLA     -0.053900
     10 NB         78.1323   60.3815   40.1062 nm         1 CLA     -0.295700
     11 OBD        74.3765   55.6532   34.2826 o2         1 CLA     -0.494600
     12 CGA        81.1265   57.1255   32.6819 c4         1 CLA      0.827000
     13 CGD        77.3505   55.7880   34.3104 c4         1 CLA      0.655300
     14 ND         75.5149   58.2159   38.0176 nm         1 CLA     -0.291600
     15 CED        77.8417   53.3996   34.9200 a3         1 CLA      0.005400
     16 CHA        76.8690   57.7599   35.9937 cs         1 CLA     -0.123800
     17 CHB        80.1051   60.1220   38.6661 aa         1 CLA     -0.291900
     18 CHC        76.7212   60.7577   42.0691 aa         1 CLA     -0.090400
     19 CHD        73.6736   57.8648   39.6516 aa         1 CLA     -0.052000
     20 CMA        81.6391   57.9919   36.9483 a3         1 CLA     -0.230700
     21 CMB        81.4572   61.7215   40.9577 a3         1 CLA     -0.180800
     22 CMC        74.3567   60.1837   44.1155 a3         1 CLA     -0.134000
     23 CMD        72.3322   56.3618   37.3416 a3         1 CLA     -0.141100
     24 C1         81.6928   54.8692   33.2927 a2         1 CLA      0.023000
     25 C1A        78.1481   58.2796   36.3407 ac         1 CLA     -0.015100
     26 C1B        79.4547   60.5690   39.8177 cr         1 CLA      0.054700
     27 C1C        75.5942   59.9742   41.7865 cn         1 CLA     -0.005600
     28 C1D        74.2613   57.7254   38.3399 ap         1 CLA     -0.047300
     29 O1A        81.2780   56.7878   31.5097 o2         1 CLA     -0.610800
     30 O1D        78.1822   55.8184   33.3793 o2         1 CLA     -0.558200
     31 C2         82.2864   54.2559   34.5875 c8         1 CLA     -0.325100
     32 C2A        79.4419   58.1167   35.5294 a1         1 CLA      0.098600
     33 C2B        80.1073   61.2750   40.9608 cb         1 CLA      0.088500
     34 C2C        74.4537   59.7348   42.7169 cb         1 CLA      0.053700
     35 C2D        73.6730   56.9327   37.3242 cb         1 CLA      0.058900
     36 O2A        81.4328   56.2728   33.7448 o1         1 CLA     -0.437200
     37 O2D        77.1060   54.6732   35.1257 o1         1 CLA     -0.357600
     38 C3         83.2153   53.3583   34.5166 c5         1 CLA      0.031200
     39 C3A        80.4894   58.8496   36.4648 a1         1 CLA      0.166800
     40 C3B        79.1058   61.5224   41.9072 cb         1 CLA      0.035000
     41 C3C        73.5043   58.9595   41.9712 cb         1 CLA     -0.089900
     42 C3D        74.6975   56.9476   36.3188 cb         1 CLA     -0.035900
     43 C4         82.9621   51.9462   34.2818 a3         1 CLA     -0.053300
     44 C4A        79.6076   59.4108   37.5886 ac         1 CLA      0.001800
     45 C4B        77.8991   60.9543   41.3556 cn         1 CLA     -0.020900
     46 C4C        74.1603   58.6836   40.6588 cr         1 CLA     -0.044400
     47 C4D        75.7503   57.7258   36.8057 c6         1 CLA     -0.046000
     48 C5         84.6806   53.8474   34.3801 a2         1 CLA     -0.070400
     49 C6         85.1646   55.2523   34.9393 a2         1 CLA      0.043900
     50 C7         85.4145   55.2936   36.4172 a2         1 CLA     -0.150000
     51 C8         85.7044   56.5963   37.1804 a1         1 CLA      0.064200
     52 C9         86.6638   57.6273   36.5147 a3         1 CLA     -0.259300
     53 C10        86.1470   56.2345   38.6531 a2         1 CLA     -0.071900
     54 C11        86.0599   57.4888   39.5199 a2         1 CLA      0.014500
     55 C12        86.6474   57.3679   40.9397 a2         1 CLA     -0.112100
     56 C13        86.2890   58.6772   41.8025 a1         1 CLA      0.089200
     57 C14        87.1269   59.9395   41.3163 a3         1 CLA     -0.239100
     58 C15        86.3327   58.3273   43.3423 a2         1 CLA     -0.102200
     59 C16        86.0210   59.4611   44.2554 a2         1 CLA      0.023900
     60 C17        85.2911   59.0869   45.4925 a2         1 CLA     -0.105700
     61 C18        85.2106   60.2118   46.6426 a1         1 CLA      0.206800
     62 C19        84.2988   61.4371   46.3931 a3         1 CLA     -0.280100
     63 C20        85.0239   59.5186   47.9914 a3         1 CLA     -0.280100
     64 NC         75.3571   59.3219   40.5968 nx         1 CLA     -0.309200
     65 MG         76.7333   59.2760   38.9764 mg         1 CLA      0.895000
     66 HMD3       71.6869   57.1676   37.2930 dc         1 CLA      0.064300
     67 HMD2       72.1665   55.8024   36.5297 dc         1 CLA      0.064300
     68 HMD1       72.1592   55.7694   38.2705 dc         1 CLA      0.064300
     69 HMC3       75.2157   59.8403   44.6884 dc         1 CLA      0.052100
     70 HMC2       74.3387   61.2259   44.2017 dc         1 CLA      0.052100
     71 HMC1       73.5722   59.7381   44.6726 dc         1 CLA      0.052100
     72 HMB3       82.1439   60.9222   40.7558 dc         1 CLA      0.063600
     73 HMB2       81.5881   62.5197   40.3063 dc         1 CLA      0.063600
     74 HMB1       81.6169   62.1088   41.9811 dc         1 CLA      0.063600
     75 HMA3       81.2638   57.1194   37.5146 dc         1 CLA      0.058300
     76 HMA2       82.2878   57.5447   36.1718 dc         1 CLA      0.058300
     77 HMA1       82.2474   58.5974   37.5723 dc         1 CLA      0.058300
     78 HED3       77.3985   52.6035   35.5507 dc         1 CLA      0.079300
     79 HED2       77.7818   53.1111   33.8703 dc         1 CLA      0.079300
     80 HED1       78.8841   53.3183   35.2258 dc         1 CLA      0.079300
     81 HBC3       73.0515   56.7257   43.3712 dc         1 CLA      0.016300
     82 HBC2       71.3244   56.4326   43.0453 dc         1 CLA      0.016300
     83 HBC1       72.4488   56.4643   41.7398 dc         1 CLA      0.016300
     84 HBB2       80.0755   62.6299   45.0516 da         1 CLA      0.183000
     85 HBB1       81.0185   61.4099   43.8976 da         1 CLA      0.183000
     86 HBA2       80.1939   58.9973   32.3015 dc         1 CLA      0.029400
     87 HBA1       81.3707   59.0783   33.6291 dc         1 CLA      0.029400
     88 HAC2       71.8594   58.8852   43.4909 dc         1 CLA      0.029300
     89 HAC1       71.3934   58.6879   41.7631 dc         1 CLA      0.029300
     90 HAA2       78.5522   58.1501   33.5792 dc         1 CLA      0.028700
     91 HAA1       78.9952   59.7044   34.0840 dc         1 CLA      0.028700
     92 H203       85.8171   58.7916   48.1134 dc         1 CLA      0.065600
     93 H202       85.0397   60.0872   48.9003 dc         1 CLA      0.065600
     94 H201       83.9788   59.1261   47.9404 dc         1 CLA      0.065600
     95 H193       84.5342   61.8254   45.3719 dc         1 CLA      0.065600
     96 H192       83.2710   61.0999   46.3817 dc         1 CLA      0.065600
     97 H191       84.4084   62.1935   47.2009 dc         1 CLA      0.065600
     98 H172       84.3509   58.8513   45.1607 dc         1 CLA      0.027600
     99 H171       85.6720   58.0954   45.8987 dc         1 CLA      0.027600
    100 H162       86.9384   59.9806   44.5469 dc         1 CLA      0.002900
    101 H161       85.5172   60.2149   43.7055 dc         1 CLA      0.002900
    102 H152       85.8128   57.3640   43.6694 dc         1 CLA      0.029100
    103 H151       87.3661   58.0626   43.5118 dc         1 CLA      0.029100
    104 H143       88.1994   59.8354   41.3395 dc         1 CLA      0.063600
    105 H142       86.9219   60.1486   40.2532 dc         1 CLA      0.063600
    106 H141       86.8364   60.8075   41.8493 dc         1 CLA      0.063600
    107 H122       86.1676   56.5673   41.4661 dc         1 CLA      0.032500
    108 H121       87.7392   57.2383   40.9679 dc         1 CLA      0.032500
    109 H112       86.6592   58.2958   39.1221 dc         1 CLA      0.006600
    110 H111       84.9909   57.7928   39.5197 dc         1 CLA      0.006600
    111 H102       85.5433   55.4388   39.0972 dc         1 CLA      0.024100
    112 H101       87.1639   55.8492   38.5487 dc         1 CLA      0.024100
    113 HHD        72.6786   57.4769   39.7908 da         1 CLA      0.174300
    114 HHC        76.6009   61.2818   43.0082 da         1 CLA      0.136800
    115 HHB        81.1790   60.4102   38.5209 da         1 CLA      0.138300
    116 HBD        76.3090   57.6219   33.9055 dc         1 CLA      0.107700
    117 HAB        78.2743   62.7617   43.3957 da         1 CLA      0.155200
    118 H93        86.4121   58.7176   36.6446 dc         1 CLA      0.069500
    119 H92        87.7330   57.4275   36.7790 dc         1 CLA      0.069500
    120 H91        86.4778   57.6905   35.4449 dc         1 CLA      0.069500
    121 H8         84.7227   57.1775   37.2826 dc         1 CLA      0.029300
    122 H72        84.5495   54.8186   36.8585 dc         1 CLA      0.044400
    123 H71        86.2316   54.5414   36.5833 dc         1 CLA      0.044400
    124 H62        86.1073   55.5061   34.3878 dc         1 CLA      0.015600
    125 H61        84.4191   55.9992   34.8011 dc         1 CLA      0.015600
    126 H52        85.3753   53.0858   34.7944 dc         1 CLA      0.033200
    127 H51        84.7646   53.7646   33.3384 dc         1 CLA      0.033200
    128 H43        81.9111   51.7321   34.5538 dc         1 CLA      0.037000
    129 H42        83.1032   51.6567   33.1855 dc         1 CLA      0.037000
    130 H41        83.6246   51.2562   34.8335 dc         1 CLA      0.037000
    131 H3A        80.8033   59.7490   35.9754 dc         1 CLA      0.041100
    132 H2A        79.6688   57.0236   35.4378 dc         1 CLA      0.083100
    133 H2         81.8883   54.6117   35.5235 da         1 CLA      0.180900
    134 H18        86.2462   60.5277   46.7350 dc         1 CLA     -0.003900
    135 H13        85.1798   58.8389   41.6362 dc         1 CLA      0.019700
    136 H12        80.7582   54.3756   33.2027 dc         1 CLA      0.120400
    137 H11        82.3295   54.6761   32.4211 dc         1 CLA      0.120400
    138 C1         68.2842   61.8614   49.6748 Z1         2 LUT      0.509236
    139 C2         66.8730   61.6000   50.1978 Z2         2 LUT     -0.434695
    140 C3         66.1141   62.8212   50.7181 Z3         2 LUT      0.437453
    141 O3         66.3278   63.0025   52.1085 S1         2 LUT     -0.547129
    142 C4         66.4971   64.1553   50.0842 Z4         2 LUT     -0.468603
    143 C5         67.3769   64.0893   48.8388 Z5         2 LUT      0.279246
    144 C6         68.0988   62.9241   48.6200 Z6         2 LUT     -0.305473
    145 C7         68.4930   62.4159   47.2529 Z7         2 LUT      0.069402
    146 C8         69.5545   62.9425   46.5743 Z8         2 LUT     -0.191631
    147 C9         70.2419   62.4306   45.4046 Z9         2 LUT      0.196698
    148 C10        71.2356   63.1838   44.9560 Y1         2 LUT     -0.208611
    149 C11        72.0602   62.8970   43.7739 Y2         2 LUT      0.030784
    150 C12        73.1962   63.6292   43.3908 Y3         2 LUT     -0.220316
    151 C13        74.0793   63.5667   42.2977 Y4         2 LUT      0.215937
    152 C14        75.2993   64.2121   42.3240 Y5         2 LUT     -0.185793
    153 C15        76.3660   64.2175   41.3731 Y6         2 LUT     -0.057835
    154 C16        68.9524   60.4785   49.3402 Y7         2 LUT     -0.405615
    155 C17        69.0630   62.4521   50.8881 Y7         2 LUT     -0.405615
    156 C18        67.0690   65.0575   47.7873 Y9         2 LUT     -0.369639
    157 C19        69.7177   61.1818   44.6738 W1         2 LUT     -0.333362
    158 C20        73.5610   62.8619   40.9961 W2         2 LUT     -0.323439
    159 C21        87.6110   65.6493   35.0106 Z1         2 LUT      0.406104
    160 C22        88.3285   64.9777   33.8195 Z2         2 LUT     -0.404965
    161 C23        88.4404   65.8032   32.6130 Z3         2 LUT      0.391255
    162 O23        88.9650   64.9567   31.5867 S1         2 LUT     -0.528210
    163 C24        87.1444   66.6677   32.3549 W6         2 LUT     -0.258361
    164 C25        86.1617   66.8002   33.1892 Z5         2 LUT      0.133546
    165 C26        86.1942   66.2016   34.5797 W8         2 LUT     -0.147008
    166 C27        85.5984   67.0961   35.7125 Z7         2 LUT      0.023843
    167 C28        84.3519   66.6947   36.1868 Z8         2 LUT     -0.216987
    168 C29        83.7123   67.0381   37.4778 Z9         2 LUT      0.206524
    169 C30        82.7339   66.2475   37.9988 Y1         2 LUT     -0.215556
    170 C31        81.9133   66.3381   39.1818 Y2         2 LUT      0.025142
    171 C32        80.7495   65.6369   39.4665 Y3         2 LUT     -0.212209
    172 C33        79.7932   65.7374   40.5387 Y4         2 LUT      0.240937
    173 C34        78.5579   65.0115   40.5160 Y5         2 LUT     -0.218862
    174 C35        77.5248   64.9330   41.5069 Y6         2 LUT     -0.023547
    175 C36        88.4992   66.7599   35.6754 Y7         2 LUT     -0.393485
    176 C37        87.6960   64.5670   36.0489 Y7         2 LUT     -0.393485
    177 C38        84.9149   67.5563   32.8285 Y9         2 LUT     -0.387526
    178 C39        84.2527   68.1037   38.3453 W1         2 LUT     -0.322618
    179 C40        80.2300   66.5610   41.7035 W2         2 LUT     -0.358472
    180 H403       81.1712   66.1425   42.1754 R7         2 LUT      0.097720
    181 H402       80.5107   67.6589   41.3762 R7         2 LUT      0.097720
    182 H401       79.5067   66.7717   42.4722 R7         2 LUT      0.097720
    183 H393       83.4995   68.6791   38.8558 R4         2 LUT      0.082505
    184 H392       84.8235   67.6468   39.1769 R4         2 LUT      0.082505
    185 H391       84.8682   68.8404   37.7633 R4         2 LUT      0.082505
    186 H383       84.7001   68.3596   33.5166 R1         2 LUT      0.104030
    187 H382       84.9656   67.9839   31.7515 R1         2 LUT      0.104030
    188 H381       84.0476   66.8965   32.8490 R1         2 LUT      0.104030
    189 H373       86.8945   63.8181   35.7116 T4         2 LUT      0.089537
    190 H372       88.7085   64.1218   36.1656 T4         2 LUT      0.089537
    191 H371       87.4097   64.9168   37.0327 T4         2 LUT      0.089537
    192 H363       88.7038   67.5658   34.9647 T4         2 LUT      0.089537
    193 H362       88.1442   67.2447   36.4990 T4         2 LUT      0.089537
    194 H361       89.4824   66.3681   35.9329 T4         2 LUT      0.089537
    195 H222       89.3360   64.6914   34.1235 U2         2 LUT      0.127376
    196 H221       87.8011   64.0923   33.4890 U2         2 LUT      0.127376
    197 H203       73.6217   63.4899   40.1578 R7         2 LUT      0.087068
    198 H202       74.0825   61.9993   40.7469 R7         2 LUT      0.087068
    199 H201       72.5886   62.4322   40.9950 R7         2 LUT      0.087068
    200 H193       69.0033   60.5753   45.2576 R4         2 LUT      0.089716
    201 H192       69.0942   61.5067   43.8275 R4         2 LUT      0.089716
    202 H191       70.5274   60.5289   44.3342 R4         2 LUT      0.089716
    203 H183       67.9687   65.3901   47.2881 R1         2 LUT      0.094572
    204 H182       66.4164   64.6383   47.0408 R1         2 LUT      0.094572
    205 H181       66.5697   65.9218   48.0431 R1         2 LUT      0.094572
    206 H173       68.8564   61.9906   51.9036 T4         2 LUT      0.093752
    207 H172       70.1540   62.4371   50.7434 T4         2 LUT      0.093752
    208 H171       68.7231   63.5059   51.0569 T4         2 LUT      0.093752
    209 H163       68.3198   59.8459   48.6693 T4         2 LUT      0.093752
    210 H162       69.9263   60.5664   48.8338 T4         2 LUT      0.093752
    211 H161       69.1573   59.8819   50.2422 T4         2 LUT      0.093752
    212 HO3        65.9731   62.2853   52.5910 Q1         2 LUT      0.300121
    213 H8         70.1043   63.7879   47.0834 U7         2 LUT      0.080784
    214 H7         68.0017   61.6021   46.9971 U6         2 LUT      0.042190
    215 H42        65.5748   64.6598   49.8363 U5         2 LUT      0.145166
    216 H41        66.9929   64.8354   50.7652 U5         2 LUT      0.145166
    217 H35        77.5466   65.5022   42.4312 T3         2 LUT      0.077919
    218 H34        78.4295   64.2770   39.7103 T2         2 LUT      0.073626
    219 H32        80.4792   64.8599   38.7109 T1         2 LUT      0.092510
    220 H31        82.1159   67.1458   39.8549 U9         2 LUT      0.070048
    221 H30        82.3732   65.5046   37.2370 U8         2 LUT      0.085442
    222 H3         65.0785   62.6784   50.5021 U3         2 LUT     -0.031596
    223 H28        83.7925   66.0761   35.5596 U7         2 LUT      0.084728
    224 H27        86.0976   67.7474   36.3719 U6         2 LUT      0.087291
    225 H26        85.4910   65.2780   34.5287 Q6         2 LUT      0.075325
    226 H24        87.0692   67.3265   31.4611 Q5         2 LUT      0.094482
    227 H23        89.1292   66.5464   32.9262 U3         2 LUT     -0.024869
    228 H22        66.3148   61.2248   49.3825 U2         2 LUT      0.127376
    229 H21        66.8416   60.7345   50.7793 U2         2 LUT      0.127376
    230 H15        76.3515   63.6837   40.3944 T3         2 LUT      0.093200
    231 H14        75.4756   64.8230   43.2359 T2         2 LUT      0.068865
    232 H12        73.4779   64.3084   44.1722 T1         2 LUT      0.095507
    233 H11        71.7904   62.0207   43.1838 U9         2 LUT      0.068930
    234 H10        71.6374   64.0820   45.4255 U8         2 LUT      0.083911
    235 H1         89.1509   65.4161   30.7582 Q1         2 LUT      0.297311
@<TRIPOS>BOND
    1     6     1 1
    2     7     2 1
    3     8     3 1
    4     9     4 1
    5    11     4 1
    6    12     6 1
    7    13     9 1
    8    16     9 1
    9    25     5 1
   10    25    16 1
   11    26    10 1
   12    26    17 1
   13    27    18 1
   14    28    14 1
   15    28    19 1
   16    29    12 1
   17    30    13 1
   18    31    24 1
   19    32     1 1
   20    32    25 1
   21    33    21 1
   22    33    26 1
   23    34    22 1
   24    34    27 1
   25    35    23 1
   26    35    28 1
   27    36    12 1
   28    36    24 1
   29    37    13 1
   30    37    15 1
   31    38    31 1
   32    39    20 1
   33    39    32 1
   34    40     2 1
   35    40    33 1
   36    41     3 1
   37    41    34 1
   38    42     4 1
   39    42    35 1
   40    43    38 1
   41    44     5 1
   42    44    17 1
   43    44    39 1
   44    45    10 1
   45    45    18 1
   46    45    40 1
   47    46    19 1
   48    46    41 1
   49    47    14 1
   50    47    16 1
   51    47    42 1
   52    48    38 1
   53    49    48 1
   54    50    49 1
   55    51    50 1
   56    52    51 1
   57    53    51 1
   58    54    53 1
   59    55    54 1
   60    56    55 1
   61    57    56 1
   62    58    56 1
   63    59    58 1
   64    60    59 1
   65    61    60 1
   66    62    61 1
   67    63    61 1
   68    64    27 1
   69    64    46 1
   70    65     5 1
   71    65    10 1
   72    65    64 1
   73    65    14 1
   74    66    23 1
   75    67    23 1
   76    68    23 1
   77    69    22 1
   78    70    22 1
   79    71    22 1
   80    72    21 1
   81    73    21 1
   82    74    21 1
   83    75    20 1
   84    76    20 1
   85    77    20 1
   86    78    15 1
   87    79    15 1
   88    80    15 1
   89    81     8 1
   90    82     8 1
   91    83     8 1
   92    84     7 1
   93    85     7 1
   94    86     6 1
   95    87     6 1
   96    88     3 1
   97    89     3 1
   98    90     1 1
   99    91     1 1
  100    92    63 1
  101    93    63 1
  102    94    63 1
  103    95    62 1
  104    96    62 1
  105    97    62 1
  106    98    60 1
  107    99    60 1
  108   100    59 1
  109   101    59 1
  110   102    58 1
  111   103    58 1
  112   104    57 1
  113   105    57 1
  114   106    57 1
  115   107    55 1
  116   108    55 1
  117   109    54 1
  118   110    54 1
  119   111    53 1
  120   112    53 1
  121   113    19 1
  122   114    18 1
  123   115    17 1
  124   116     9 1
  125   117     2 1
  126   118    52 1
  127   119    52 1
  128   120    52 1
  129   121    51 1
  130   122    50 1
  131   123    50 1
  132   124    49 1
  133   125    49 1
  134   126    48 1
  135   127    48 1
  136   128    43 1
  137   129    43 1
  138   130    43 1
  139   131    39 1
  140   132    32 1
  141   133    31 1
  142   134    61 1
  143   135    56 1
  144   136    24 1
  145   137    24 1
  146   139   138 1
  147   140   139 1
  148   141   140 1
  149   142   140 1
  150   143   142 1
  151   144   138 1
  152   144   143 1
  153   145   144 1
  154   146   145 1
  155   147   146 1
  156   148   147 1
  157   149   148 1
  158   150   149 1
  159   151   150 1
  160   152   151 1
  161   153   152 1
  162   154   138 1
  163   155   138 1
  164   156   143 1
  165   157   147 1
  166   158   151 1
  167   160   159 1
  168   161   160 1
  169   162   161 1
  170   163   161 1
  171   164   163 1
  172   165   159 1
  173   165   164 1
  174   166   165 1
  175   167   166 1
  176   168   167 1
  177   169   168 1
  178   170   169 1
  179   171   170 1
  180   172   171 1
  181   173   172 1
  182   174   153 1
  183   174   173 1
  184   175   159 1
  185   176   159 1
  186   177   164 1
  187   178   168 1
  188   179   172 1
  189   180   179 1
  190   181   179 1
  191   182   179 1
  192   183   178 1
  193   184   178 1
  194   185   178 1
  195   186   177 1
  196   187   177 1
  197   188   177 1
  198   189   176 1
  199   190   176 1
  200   191   176 1
  201   192   175 1
  202   193   175 1
  203   194   175 1
  204   195   160 1
  205   196   160 1
  206   197   158 1
  207   198   158 1
  208   199   158 1
  209   200   157 1
  210   201   157 1
  211   202   157 1
  212   203   156 1
  213   204   156 1
  214   205   156 1
  215   206   155 1
  216   207   155 1
  217   208   155 1
  218   209   154 1
  219   210   154 1
  220   211   154 1
  221   212   141 1
  222   213   146 1
  223   214   145 1
  224   215   142 1
  225   216   142 1
  226   217   174 1
  227   218   173 1
  228   219   171 1
  229   220   170 1
  230   221   169 1
  231   222   140 1
  232   223   167 1
  233   224   166 1
  234   225   165 1
  235   226   163 1
  236   227   161 1
  237   228   139 1
  238   229   139 1
  239   230   153 1
  240   231   152 1
  241   232   150 1
  242   233   149 1
  243   234   148 1
  244   235   162 1
  245   65    153 1
  246   65    174 1
@<TRIPOS>SUBSTRUCTURE
      1 CLA               1 ****               0 ****  **** 
      2 LUT             138 ****               0 ****  **** 
