@<TRIPOS>MOLECULE
Cpptraj generated mol2 file.
  235   246     2     0     0
SMALL
USER_CHARGES


@<TRIPOS>ATOM
      1 CAA        79.6408   59.2291   33.9314 a2         1 CLA     -0.055900
      2 CAB        79.4214   62.0886   43.2394 c8         1 CLA     -0.148500
      3 CAC        72.5613   58.4134   42.1615 a2         1 CLA     -0.012600
      4 CAD        75.1307   57.1416   34.4876 ck         1 CLA      0.398800
      5 NA         78.5259   59.3111   37.3307 ns         1 CLA     -0.225500
      6 CBA        80.9515   59.2570   33.1735 a2         1 CLA     -0.135000
      7 CBB        80.5328   62.4111   43.9130 c0         1 CLA     -0.395200
      8 CBC        72.7328   56.9534   42.2995 a3         1 CLA     -0.037700
      9 CBD        76.7075   57.3412   34.3663 a1         1 CLA     -0.053900
     10 NB         78.4786   60.5185   39.9972 nm         1 CLA     -0.295700
     11 OBD        74.4147   56.5831   33.6334 o2         1 CLA     -0.494600
     12 CGA        81.5562   57.9135   32.7062 c4         1 CLA      0.827000
     13 CGD        77.3887   56.0514   34.0860 c4         1 CLA      0.655300
     14 ND         75.5562   58.7730   37.5838 nm         1 CLA     -0.291600
     15 CED        77.3956   53.7815   34.7591 a3         1 CLA      0.005400
     16 CHA        77.1139   58.1471   35.6379 cs         1 CLA     -0.123800
     17 CHB        80.3506   60.5279   38.4908 aa         1 CLA     -0.291900
     18 CHC        76.9630   60.8325   41.9496 aa         1 CLA     -0.090400
     19 CHD        73.5976   58.5656   39.1103 aa         1 CLA     -0.052000
     20 CMA        81.8988   58.3250   36.6507 a3         1 CLA     -0.230700
     21 CMB        81.8552   61.9634   40.8184 a3         1 CLA     -0.180800
     22 CMC        74.7951   60.2270   43.8745 a3         1 CLA     -0.134000
     23 CMD        72.1766   57.5825   36.3272 a3         1 CLA     -0.141100
     24 C1         82.2841   55.7604   33.4099 a2         1 CLA      0.023000
     25 C1A        78.3528   58.5925   36.1601 ac         1 CLA     -0.015100
     26 C1B        79.7406   60.8862   39.6716 cr         1 CLA      0.054700
     27 C1C        75.7359   60.3068   41.5256 cn         1 CLA     -0.005600
     28 C1D        74.2552   58.4413   37.8083 ap         1 CLA     -0.047300
     29 O1A        81.6931   57.5573   31.5033 o2         1 CLA     -0.610800
     30 O1D        78.0626   55.8283   33.0764 o2         1 CLA     -0.558200
     31 C2         82.5447   54.9219   34.6451 c8         1 CLA     -0.325100
     32 C2A        79.6631   58.5752   35.3519 a1         1 CLA      0.098600
     33 C2B        80.4089   61.6022   40.8287 cb         1 CLA      0.088500
     34 C2C        74.6646   59.9443   42.4486 cb         1 CLA      0.053700
     35 C2D        73.6760   57.9683   36.5614 cb         1 CLA      0.058900
     36 O2A        81.8755   57.1419   33.8029 o1         1 CLA     -0.437200
     37 O2D        77.0479   55.1432   35.0106 o1         1 CLA     -0.357600
     38 C3         83.2973   53.8672   34.8321 c5         1 CLA      0.031200
     39 C3A        80.7154   59.2283   36.2683 a1         1 CLA      0.166800
     40 C3B        79.3926   61.7035   41.8306 cb         1 CLA      0.035000
     41 C3C        73.7642   59.1669   41.6858 cb         1 CLA     -0.089900
     42 C3D        74.7727   57.7601   35.7183 cb         1 CLA     -0.035900
     43 C4         82.9318   52.3733   34.6230 a3         1 CLA     -0.053300
     44 C4A        79.8448   59.7650   37.4352 ac         1 CLA      0.001800
     45 C4B        78.2466   61.0119   41.3126 cn         1 CLA     -0.020900
     46 C4C        74.2607   59.1848   40.2279 cr         1 CLA     -0.044400
     47 C4D        75.8828   58.2859   36.3554 c6         1 CLA     -0.046000
     48 C5         84.8786   54.0922   34.9550 a2         1 CLA     -0.070400
     49 C6         85.2366   55.4367   35.5040 a2         1 CLA      0.043900
     50 C7         84.8067   55.6883   36.9980 a2         1 CLA     -0.150000
     51 C8         85.3591   57.0299   37.6827 a1         1 CLA      0.064200
     52 C9         86.7724   57.4994   37.3020 a3         1 CLA     -0.259300
     53 C10        85.2425   56.7401   39.1620 a2         1 CLA     -0.071900
     54 C11        85.2638   58.0464   40.0566 a2         1 CLA      0.014500
     55 C12        85.4948   57.7232   41.5668 a2         1 CLA     -0.112100
     56 C13        85.3061   58.9667   42.4697 a1         1 CLA      0.089200
     57 C14        86.4916   60.0679   42.2926 a3         1 CLA     -0.239100
     58 C15        85.1791   58.5379   43.9054 a2         1 CLA     -0.102200
     59 C16        83.8228   57.9274   44.3400 a2         1 CLA      0.023900
     60 C17        83.6045   57.9808   45.9465 a2         1 CLA     -0.105700
     61 C18        84.3790   57.0186   46.8963 a1         1 CLA      0.206800
     62 C19        84.2457   57.4485   48.4379 a3         1 CLA     -0.280100
     63 C20        83.9976   55.5502   46.7525 a3         1 CLA     -0.280100
     64 NC         75.5190   59.7989   40.2378 nx         1 CLA     -0.309200
     65 MG         77.0110   59.6446   38.7173 mg         1 CLA      0.895000
     66 HMD3       71.6184   57.5283   37.2263 dc         1 CLA      0.064300
     67 HMD2       71.6602   58.4169   35.7430 dc         1 CLA      0.064300
     68 HMD1       72.2532   56.6460   35.7844 dc         1 CLA      0.064300
     69 HMC3       73.7803   60.1966   44.3851 dc         1 CLA      0.052100
     70 HMC2       75.4677   59.4533   44.3091 dc         1 CLA      0.052100
     71 HMC1       75.1203   61.2643   44.0759 dc         1 CLA      0.052100
     72 HMB3       82.2478   62.1450   39.8438 dc         1 CLA      0.063600
     73 HMB2       81.8403   62.9832   41.2867 dc         1 CLA      0.063600
     74 HMB1       82.5160   61.2767   41.3565 dc         1 CLA      0.063600
     75 HMA3       82.5676   58.3956   35.7996 dc         1 CLA      0.058300
     76 HMA2       82.3421   58.7805   37.6068 dc         1 CLA      0.058300
     77 HMA1       81.5479   57.3648   36.9578 dc         1 CLA      0.058300
     78 HED3       76.7058   53.1731   35.3948 dc         1 CLA      0.079300
     79 HED2       77.2605   53.5503   33.7232 dc         1 CLA      0.079300
     80 HED1       78.3522   53.6595   35.1491 dc         1 CLA      0.079300
     81 HBC3       71.7155   56.5154   42.0857 dc         1 CLA      0.016300
     82 HBC2       73.3340   56.6608   41.4006 dc         1 CLA      0.016300
     83 HBC1       73.1172   56.6056   43.2403 dc         1 CLA      0.016300
     84 HBB2       80.5318   62.7069   44.9485 da         1 CLA      0.183000
     85 HBB1       81.5122   62.4846   43.4096 da         1 CLA      0.183000
     86 HBA2       80.7362   59.6871   32.2264 dc         1 CLA      0.029400
     87 HBA1       81.6527   59.9474   33.5813 dc         1 CLA      0.029400
     88 HAC2       72.1737   58.8745   43.0630 dc         1 CLA      0.029300
     89 HAC1       71.7608   58.5625   41.4580 dc         1 CLA      0.029300
     90 HAA2       78.9430   58.7091   33.2744 dc         1 CLA      0.028700
     91 HAA1       79.3382   60.2341   33.9569 dc         1 CLA      0.028700
     92 H203       82.9456   55.5284   47.0713 dc         1 CLA      0.065600
     93 H202       84.0470   55.2978   45.7044 dc         1 CLA      0.065600
     94 H201       84.6693   54.9377   47.3693 dc         1 CLA      0.065600
     95 H193       84.7250   56.6268   48.9560 dc         1 CLA      0.065600
     96 H192       84.7931   58.3407   48.7680 dc         1 CLA      0.065600
     97 H191       83.1490   57.4812   48.7633 dc         1 CLA      0.065600
     98 H172       83.7669   59.1142   46.2280 dc         1 CLA      0.027600
     99 H171       82.5550   57.7648   46.1687 dc         1 CLA      0.027600
    100 H162       83.0186   58.5005   43.8260 dc         1 CLA      0.002900
    101 H161       83.6471   56.9866   43.8664 dc         1 CLA      0.002900
    102 H152       85.9900   57.8091   44.1164 dc         1 CLA      0.029100
    103 H151       85.3553   59.4724   44.4652 dc         1 CLA      0.029100
    104 H143       86.7555   60.3437   41.2557 dc         1 CLA      0.063600
    105 H142       86.0922   60.9805   42.7486 dc         1 CLA      0.063600
    106 H141       87.4349   59.8866   42.7507 dc         1 CLA      0.063600
    107 H122       84.6369   57.0322   41.8259 dc         1 CLA      0.032500
    108 H121       86.4612   57.2915   41.8687 dc         1 CLA      0.032500
    109 H112       86.0692   58.6877   39.7033 dc         1 CLA      0.006600
    110 H111       84.2969   58.4965   39.8947 dc         1 CLA      0.006600
    111 H102       84.3822   56.1005   39.3484 dc         1 CLA      0.024100
    112 H101       86.0749   56.0456   39.3715 dc         1 CLA      0.024100
    113 HHD        72.5532   58.4120   39.1442 da         1 CLA      0.174300
    114 HHC        76.8867   61.1109   42.9927 da         1 CLA      0.136800
    115 HHB        81.4030   60.8483   38.4889 da         1 CLA      0.138300
    116 HBD        76.9790   57.8500   33.4174 dc         1 CLA      0.107700
    117 HAB        78.5130   62.1967   43.7729 da         1 CLA      0.155200
    118 H93        86.7464   57.8166   36.2474 dc         1 CLA      0.069500
    119 H92        87.1936   58.2255   37.9523 dc         1 CLA      0.069500
    120 H91        87.4499   56.6472   37.4955 dc         1 CLA      0.069500
    121 H8         84.6193   57.7622   37.4074 dc         1 CLA      0.029300
    122 H72        83.6846   55.7192   36.9604 dc         1 CLA      0.044400
    123 H71        85.0731   54.7997   37.4944 dc         1 CLA      0.044400
    124 H62        86.3339   55.3470   35.4652 dc         1 CLA      0.015600
    125 H61        84.9654   56.2958   34.8601 dc         1 CLA      0.015600
    126 H52        85.4154   53.2587   35.4542 dc         1 CLA      0.033200
    127 H51        85.1161   54.0834   33.9161 dc         1 CLA      0.033200
    128 H43        83.6695   51.9508   33.9219 dc         1 CLA      0.037000
    129 H42        83.0037   52.0065   35.6364 dc         1 CLA      0.037000
    130 H41        81.9730   52.1110   34.2865 dc         1 CLA      0.037000
    131 H3A        81.1505   60.1555   35.8377 dc         1 CLA      0.041100
    132 H2A        79.8198   57.5482   35.1852 dc         1 CLA      0.083100
    133 H2         82.1342   55.2663   35.5916 da         1 CLA      0.180900
    134 H18        85.4370   56.9175   46.8221 dc         1 CLA     -0.003900
    135 H13        84.3765   59.5047   42.1555 dc         1 CLA      0.019700
    136 H12        81.4827   55.3170   32.7867 dc         1 CLA      0.120400
    137 H11        83.1315   55.7665   32.8164 dc         1 CLA      0.120400
    138 C1         69.7096   61.7286   50.4261 Z1         2 LUT      0.509236
    139 C2         69.4874   62.4160   51.7912 Z2         2 LUT     -0.434695
    140 C3         68.0666   62.7490   51.8369 Z3         2 LUT      0.437453
    141 O3         67.8406   63.5291   53.0364 S1         2 LUT     -0.547129
    142 C4         67.5393   63.5335   50.6405 Z4         2 LUT     -0.468603
    143 C5         68.0581   63.2064   49.2339 Z5         2 LUT      0.279246
    144 C6         69.1051   62.3931   49.0977 Z6         2 LUT     -0.305473
    145 C7         69.7890   62.0996   47.7636 Z7         2 LUT      0.069402
    146 C8         71.0160   62.4858   47.3218 Z8         2 LUT     -0.191631
    147 C9         71.4989   62.3700   45.8755 Z9         2 LUT      0.196698
    148 C10        72.5200   63.1673   45.4895 Y1         2 LUT     -0.208611
    149 C11        73.2035   63.0399   44.1743 Y2         2 LUT      0.030784
    150 C12        74.2458   63.7788   43.8155 Y3         2 LUT     -0.220316
    151 C13        75.0082   63.7269   42.5989 Y4         2 LUT      0.215937
    152 C14        76.2204   64.4494   42.5083 Y5         2 LUT     -0.185793
    153 C15        77.2640   64.3932   41.5324 Y6         2 LUT     -0.057835
    154 C16        68.9918   60.3308   50.5042 Y7         2 LUT     -0.405615
    155 C17        71.1664   61.2686   50.2184 Y7         2 LUT     -0.405615
    156 C18        67.5844   64.1587   48.0930 Y9         2 LUT     -0.369639
    157 C19        70.8648   61.2740   45.0695 W1         2 LUT     -0.333362
    158 C20        74.1615   63.2512   41.3499 W2         2 LUT     -0.323439
    159 C21        88.4591   66.3858   34.8987 Z1         2 LUT      0.406104
    160 C22        89.0771   65.6609   33.6470 Z2         2 LUT     -0.404965
    161 C23        89.2900   66.5363   32.4849 Z3         2 LUT      0.391255
    162 O23        89.6251   65.6878   31.3792 S1         2 LUT     -0.528210
    163 C24        88.0416   67.3992   32.2779 W6         2 LUT     -0.258361
    164 C25        87.0133   67.5919   33.1699 Z5         2 LUT      0.133546
    165 C26        86.9375   66.7868   34.4547 W8         2 LUT     -0.147008
    166 C27        86.0609   67.3594   35.5778 Z7         2 LUT      0.023843
    167 C28        85.3050   66.6180   36.4040 Z8         2 LUT     -0.216987
    168 C29        84.4815   67.0312   37.5567 Z9         2 LUT      0.206524
    169 C30        83.5792   66.1490   38.1171 Y1         2 LUT     -0.215556
    170 C31        82.7563   66.3534   39.3096 Y2         2 LUT      0.025142
    171 C32        81.7505   65.5262   39.6541 Y3         2 LUT     -0.212209
    172 C33        80.6879   65.7821   40.6592 Y4         2 LUT      0.240937
    173 C34        79.5093   65.0578   40.6352 Y5         2 LUT     -0.218862
    174 C35        78.4500   65.1354   41.6041 Y6         2 LUT     -0.023547
    175 C36        89.2033   67.6381   35.4049 Y7         2 LUT     -0.393485
    176 C37        88.3891   65.1973   35.9610 Y7         2 LUT     -0.393485
    177 C38        85.7538   68.3747   32.8181 Y9         2 LUT     -0.387526
    178 C39        84.6976   68.4838   38.0576 W1         2 LUT     -0.322618
    179 C40        80.8282   67.0177   41.5624 W2         2 LUT     -0.358472
    180 H403       81.2385   67.9614   41.0416 R7         2 LUT      0.097720
    181 H402       79.8551   67.3871   41.9126 R7         2 LUT      0.097720
    182 H401       81.4864   66.8846   42.3921 R7         2 LUT      0.097720
    183 H393       84.2371   68.7310   38.9947 R4         2 LUT      0.082505
    184 H392       85.7589   68.6936   38.1107 R4         2 LUT      0.082505
    185 H391       84.3217   69.2668   37.3506 R4         2 LUT      0.082505
    186 H383       85.8141   68.8224   31.8198 R1         2 LUT      0.104030
    187 H382       84.7954   67.7614   32.9153 R1         2 LUT      0.104030
    188 H381       85.7010   69.1745   33.5822 R1         2 LUT      0.104030
    189 H373       89.2865   64.6566   36.2695 T4         2 LUT      0.089537
    190 H372       88.0671   65.7112   36.8560 T4         2 LUT      0.089537
    191 H371       87.5676   64.5087   35.7482 T4         2 LUT      0.089537
    192 H363       88.6305   67.9918   36.1964 T4         2 LUT      0.089537
    193 H362       90.2110   67.3872   35.7153 T4         2 LUT      0.089537
    194 H361       89.3864   68.3639   34.6285 T4         2 LUT      0.089537
    195 H222       90.0348   65.2987   33.9999 U2         2 LUT      0.127376
    196 H221       88.3801   64.8651   33.3336 U2         2 LUT      0.127376
    197 H203       73.5957   62.3638   41.4635 R7         2 LUT      0.087068
    198 H202       73.5327   64.0371   40.9818 R7         2 LUT      0.087068
    199 H201       74.8122   63.0885   40.4999 R7         2 LUT      0.087068
    200 H193       70.7787   60.3569   45.6059 R4         2 LUT      0.089716
    201 H192       69.8259   61.6129   44.9813 R4         2 LUT      0.089716
    202 H191       71.2278   60.9692   44.0457 R4         2 LUT      0.089716
    203 H183       68.3485   64.8079   47.6519 R1         2 LUT      0.094572
    204 H182       67.2408   63.5912   47.2550 R1         2 LUT      0.094572
    205 H181       66.7590   64.8036   48.4446 R1         2 LUT      0.094572
    206 H173       71.4682   60.9575   51.2261 T4         2 LUT      0.093752
    207 H172       71.3175   60.4005   49.5417 T4         2 LUT      0.093752
    208 H171       71.9709   61.9968   49.9506 T4         2 LUT      0.093752
    209 H163       67.9182   60.4491   50.5806 T4         2 LUT      0.093752
    210 H162       69.0802   59.7561   49.5301 T4         2 LUT      0.093752
    211 H161       69.4628   59.6884   51.2255 T4         2 LUT      0.093752
    212 HO3        67.4353   63.0032   53.7318 Q1         2 LUT      0.300121
    213 H8         71.7009   63.0897   47.9724 U7         2 LUT      0.080784
    214 H7         69.1241   61.5735   47.0609 U6         2 LUT      0.042190
    215 H42        66.4391   63.5137   50.5414 U5         2 LUT      0.145166
    216 H41        67.6574   64.6308   50.8107 U5         2 LUT      0.145166
    217 H35        78.7198   65.7850   42.4631 T3         2 LUT      0.077919
    218 H34        79.5343   64.3782   39.6759 T2         2 LUT      0.073626
    219 H32        81.6239   64.6420   38.9801 T1         2 LUT      0.092510
    220 H31        82.8587   67.2512   39.9168 U9         2 LUT      0.070048
    221 H30        83.6344   65.2212   37.6231 U8         2 LUT      0.085442
    222 H3         67.4386   61.8151   51.8829 U3         2 LUT     -0.031596
    223 H28        85.2133   65.5133   36.1777 U7         2 LUT      0.084728
    224 H27        86.2026   68.3881   35.8728 U6         2 LUT      0.087291
    225 H26        86.3977   65.8313   34.2729 Q6         2 LUT      0.075325
    226 H24        88.1628   67.9713   31.3864 Q5         2 LUT      0.094482
    227 H23        90.1766   67.2190   32.7251 U3         2 LUT     -0.024869
    228 H22        69.8795   61.7790   52.5801 U2         2 LUT      0.127376
    229 H21        69.9832   63.3814   51.8245 U2         2 LUT      0.127376
    230 H15        77.0721   63.8540   40.5917 T3         2 LUT      0.093200
    231 H14        76.5678   65.1277   43.2905 T2         2 LUT      0.068865
    232 H12        74.6210   64.4975   44.5148 T1         2 LUT      0.095507
    233 H11        72.8211   62.2620   43.4782 U9         2 LUT      0.068930
    234 H10        73.0207   63.9400   46.0942 U8         2 LUT      0.083911
    235 H1         89.5606   66.0579   30.4996 Q1         2 LUT      0.297311
@<TRIPOS>BOND
    1     6     1 1
    2     7     2 1
    3     8     3 1
    4     9     4 1
    5    11     4 1
    6    12     6 1
    7    13     9 1
    8    16     9 1
    9    25     5 1
   10    25    16 1
   11    26    10 1
   12    26    17 1
   13    27    18 1
   14    28    14 1
   15    28    19 1
   16    29    12 1
   17    30    13 1
   18    31    24 1
   19    32     1 1
   20    32    25 1
   21    33    21 1
   22    33    26 1
   23    34    22 1
   24    34    27 1
   25    35    23 1
   26    35    28 1
   27    36    12 1
   28    36    24 1
   29    37    13 1
   30    37    15 1
   31    38    31 1
   32    39    20 1
   33    39    32 1
   34    40     2 1
   35    40    33 1
   36    41     3 1
   37    41    34 1
   38    42     4 1
   39    42    35 1
   40    43    38 1
   41    44     5 1
   42    44    17 1
   43    44    39 1
   44    45    10 1
   45    45    18 1
   46    45    40 1
   47    46    19 1
   48    46    41 1
   49    47    14 1
   50    47    16 1
   51    47    42 1
   52    48    38 1
   53    49    48 1
   54    50    49 1
   55    51    50 1
   56    52    51 1
   57    53    51 1
   58    54    53 1
   59    55    54 1
   60    56    55 1
   61    57    56 1
   62    58    56 1
   63    59    58 1
   64    60    59 1
   65    61    60 1
   66    62    61 1
   67    63    61 1
   68    64    27 1
   69    64    46 1
   70    65     5 1
   71    65    10 1
   72    65    64 1
   73    65    14 1
   74    66    23 1
   75    67    23 1
   76    68    23 1
   77    69    22 1
   78    70    22 1
   79    71    22 1
   80    72    21 1
   81    73    21 1
   82    74    21 1
   83    75    20 1
   84    76    20 1
   85    77    20 1
   86    78    15 1
   87    79    15 1
   88    80    15 1
   89    81     8 1
   90    82     8 1
   91    83     8 1
   92    84     7 1
   93    85     7 1
   94    86     6 1
   95    87     6 1
   96    88     3 1
   97    89     3 1
   98    90     1 1
   99    91     1 1
  100    92    63 1
  101    93    63 1
  102    94    63 1
  103    95    62 1
  104    96    62 1
  105    97    62 1
  106    98    60 1
  107    99    60 1
  108   100    59 1
  109   101    59 1
  110   102    58 1
  111   103    58 1
  112   104    57 1
  113   105    57 1
  114   106    57 1
  115   107    55 1
  116   108    55 1
  117   109    54 1
  118   110    54 1
  119   111    53 1
  120   112    53 1
  121   113    19 1
  122   114    18 1
  123   115    17 1
  124   116     9 1
  125   117     2 1
  126   118    52 1
  127   119    52 1
  128   120    52 1
  129   121    51 1
  130   122    50 1
  131   123    50 1
  132   124    49 1
  133   125    49 1
  134   126    48 1
  135   127    48 1
  136   128    43 1
  137   129    43 1
  138   130    43 1
  139   131    39 1
  140   132    32 1
  141   133    31 1
  142   134    61 1
  143   135    56 1
  144   136    24 1
  145   137    24 1
  146   139   138 1
  147   140   139 1
  148   141   140 1
  149   142   140 1
  150   143   142 1
  151   144   138 1
  152   144   143 1
  153   145   144 1
  154   146   145 1
  155   147   146 1
  156   148   147 1
  157   149   148 1
  158   150   149 1
  159   151   150 1
  160   152   151 1
  161   153   152 1
  162   154   138 1
  163   155   138 1
  164   156   143 1
  165   157   147 1
  166   158   151 1
  167   160   159 1
  168   161   160 1
  169   162   161 1
  170   163   161 1
  171   164   163 1
  172   165   159 1
  173   165   164 1
  174   166   165 1
  175   167   166 1
  176   168   167 1
  177   169   168 1
  178   170   169 1
  179   171   170 1
  180   172   171 1
  181   173   172 1
  182   174   153 1
  183   174   173 1
  184   175   159 1
  185   176   159 1
  186   177   164 1
  187   178   168 1
  188   179   172 1
  189   180   179 1
  190   181   179 1
  191   182   179 1
  192   183   178 1
  193   184   178 1
  194   185   178 1
  195   186   177 1
  196   187   177 1
  197   188   177 1
  198   189   176 1
  199   190   176 1
  200   191   176 1
  201   192   175 1
  202   193   175 1
  203   194   175 1
  204   195   160 1
  205   196   160 1
  206   197   158 1
  207   198   158 1
  208   199   158 1
  209   200   157 1
  210   201   157 1
  211   202   157 1
  212   203   156 1
  213   204   156 1
  214   205   156 1
  215   206   155 1
  216   207   155 1
  217   208   155 1
  218   209   154 1
  219   210   154 1
  220   211   154 1
  221   212   141 1
  222   213   146 1
  223   214   145 1
  224   215   142 1
  225   216   142 1
  226   217   174 1
  227   218   173 1
  228   219   171 1
  229   220   170 1
  230   221   169 1
  231   222   140 1
  232   223   167 1
  233   224   166 1
  234   225   165 1
  235   226   163 1
  236   227   161 1
  237   228   139 1
  238   229   139 1
  239   230   153 1
  240   231   152 1
  241   232   150 1
  242   233   149 1
  243   234   148 1
  244   235   162 1
  245   65    153 1
  246   65    174 1
@<TRIPOS>SUBSTRUCTURE
      1 CLA               1 ****               0 ****  **** 
      2 LUT             138 ****               0 ****  **** 
