@<TRIPOS>MOLECULE
Cpptraj generated mol2 file.
  235   246     2     0     0
SMALL
USER_CHARGES


@<TRIPOS>ATOM
      1 CAA        78.1370   58.9313   33.8179 a2         1 CLA     -0.055900
      2 CAB        77.8528   61.9103   43.1957 c8         1 CLA     -0.148500
      3 CAC        71.1187   57.6724   42.0935 a2         1 CLA     -0.012600
      4 CAD        74.1389   55.8372   34.8665 ck         1 CLA      0.398800
      5 NA         77.0607   58.9355   37.2524 ns         1 CLA     -0.225500
      6 CBA        79.3065   58.7127   32.8807 a2         1 CLA     -0.135000
      7 CBB        78.9528   61.7407   43.9565 c0         1 CLA     -0.395200
      8 CBC        71.4142   56.2181   42.1214 a3         1 CLA     -0.037700
      9 CBD        75.5360   56.4678   34.6133 a1         1 CLA     -0.053900
     10 NB         76.7937   60.2116   40.0422 nm         1 CLA     -0.295700
     11 OBD        73.5062   55.0838   34.1201 o2         1 CLA     -0.494600
     12 CGA        79.6925   57.3158   32.6054 c4         1 CLA      0.827000
     13 CGD        76.6037   55.3390   34.4638 c4         1 CLA      0.655300
     14 ND         74.3282   57.9051   37.7857 nm         1 CLA     -0.291600
     15 CED        77.2807   53.1366   34.9386 a3         1 CLA      0.005400
     16 CHA        75.8140   57.4340   35.7670 cs         1 CLA     -0.123800
     17 CHB        78.8160   60.1121   38.4898 aa         1 CLA     -0.291900
     18 CHC        75.3186   60.5135   42.0035 aa         1 CLA     -0.090400
     19 CHD        72.3987   57.6819   39.2615 aa         1 CLA     -0.052000
     20 CMA        80.4425   58.1802   36.8184 a3         1 CLA     -0.230700
     21 CMB        80.0459   61.8905   40.8795 a3         1 CLA     -0.180800
     22 CMC        72.9595   59.7574   43.8729 a3         1 CLA     -0.134000
     23 CMD        71.2811   56.0512   36.6899 a3         1 CLA     -0.141100
     24 C1         80.8061   55.3822   33.5161 a2         1 CLA      0.023000
     25 C1A        76.9689   58.2033   36.0996 ac         1 CLA     -0.015100
     26 C1B        78.1384   60.4779   39.7900 cr         1 CLA      0.054700
     27 C1C        74.2738   59.7294   41.6258 cn         1 CLA     -0.005600
     28 C1D        73.0775   57.4486   38.0475 ap         1 CLA     -0.047300
     29 O1A        79.3904   56.6613   31.6187 o2         1 CLA     -0.610800
     30 O1D        77.6421   55.4643   33.7917 o2         1 CLA     -0.558200
     31 C2         81.3368   54.9490   34.8977 c8         1 CLA     -0.325100
     32 C2A        78.2790   58.2786   35.3002 a1         1 CLA      0.098600
     33 C2B        78.7180   61.2417   40.8507 cb         1 CLA      0.088500
     34 C2C        73.1121   59.3566   42.4735 cb         1 CLA      0.053700
     35 C2D        72.6129   56.6298   36.9260 cb         1 CLA      0.058900
     36 O2A        80.4583   56.8450   33.5988 o1         1 CLA     -0.437200
     37 O2D        76.3146   54.2114   35.2061 o1         1 CLA     -0.357600
     38 C3         81.8869   53.8074   35.2074 c5         1 CLA      0.031200
     39 C3A        79.2693   59.0874   36.2128 a1         1 CLA      0.166800
     40 C3B        77.7203   61.3552   41.8598 cb         1 CLA      0.035000
     41 C3C        72.3147   58.5138   41.7002 cb         1 CLA     -0.089900
     42 C3D        73.7144   56.4983   36.0737 cb         1 CLA     -0.035900
     43 C4         81.1994   52.6064   35.8679 a3         1 CLA     -0.053300
     44 C4A        78.2993   59.4231   37.3460 ac         1 CLA      0.001800
     45 C4B        76.5273   60.7173   41.3363 cn         1 CLA     -0.020900
     46 C4C        72.9423   58.3999   40.3997 cr         1 CLA     -0.044400
     47 C4D        74.7051   57.3868   36.5704 c6         1 CLA     -0.046000
     48 C5         83.3054   53.6579   34.7046 a2         1 CLA     -0.070400
     49 C6         84.2147   54.8953   35.0827 a2         1 CLA      0.043900
     50 C7         84.1955   55.0565   36.6433 a2         1 CLA     -0.150000
     51 C8         84.5384   56.5218   37.0355 a1         1 CLA      0.064200
     52 C9         85.8457   57.0048   36.3948 a3         1 CLA     -0.259300
     53 C10        84.5500   56.6854   38.6201 a2         1 CLA     -0.071900
     54 C11        83.2170   56.6044   39.3506 a2         1 CLA      0.014500
     55 C12        83.1691   57.2638   40.7222 a2         1 CLA     -0.112100
     56 C13        81.8188   57.2094   41.4499 a1         1 CLA      0.089200
     57 C14        80.6212   57.8318   40.7702 a3         1 CLA     -0.239100
     58 C15        81.9928   57.6931   42.9638 a2         1 CLA     -0.102200
     59 C16        82.5998   59.0893   43.2271 a2         1 CLA      0.023900
     60 C17        82.9848   59.3240   44.7320 a2         1 CLA     -0.105700
     61 C18        83.4702   60.7186   45.0466 a1         1 CLA      0.206800
     62 C19        82.4681   61.8704   44.7494 a3         1 CLA     -0.280100
     63 C20        83.9484   60.7903   46.5127 a3         1 CLA     -0.280100
     64 NC         74.1560   59.0343   40.4366 nx         1 CLA     -0.309200
     65 MG         75.5674   59.0817   38.9063 mg         1 CLA      0.895000
     66 HMD3       71.2446   55.3223   35.8728 dc         1 CLA      0.064300
     67 HMD2       70.8780   55.6237   37.6274 dc         1 CLA      0.064300
     68 HMD1       70.6256   56.7949   36.3378 dc         1 CLA      0.064300
     69 HMC3       72.7611   58.8284   44.3969 dc         1 CLA      0.052100
     70 HMC2       73.7809   60.1255   44.4220 dc         1 CLA      0.052100
     71 HMC1       72.0872   60.4069   43.9489 dc         1 CLA      0.052100
     72 HMB3       80.7879   61.1532   41.2238 dc         1 CLA      0.063600
     73 HMB2       80.2590   62.1835   39.8698 dc         1 CLA      0.063600
     74 HMB1       80.1423   62.6779   41.6396 dc         1 CLA      0.063600
     75 HMA3       81.2458   58.7153   37.3054 dc         1 CLA      0.058300
     76 HMA2       80.1320   57.4187   37.5288 dc         1 CLA      0.058300
     77 HMA1       81.0010   57.7909   36.0373 dc         1 CLA      0.058300
     78 HED3       78.1604   53.4297   35.5131 dc         1 CLA      0.079300
     79 HED2       76.8754   52.1496   35.2529 dc         1 CLA      0.079300
     80 HED1       77.5418   53.0999   33.8817 dc         1 CLA      0.079300
     81 HBC3       71.4842   55.7091   41.1602 dc         1 CLA      0.016300
     82 HBC2       72.3277   56.3175   42.6677 dc         1 CLA      0.016300
     83 HBC1       70.5653   55.7752   42.6328 dc         1 CLA      0.016300
     84 HBB2       78.9847   62.1060   44.9719 da         1 CLA      0.183000
     85 HBB1       79.8390   61.2294   43.5140 da         1 CLA      0.183000
     86 HBA2       78.9714   59.0935   31.9571 dc         1 CLA      0.029400
     87 HBA1       80.2065   59.2827   33.1998 dc         1 CLA      0.029400
     88 HAC2       70.7816   58.0131   43.0134 dc         1 CLA      0.029300
     89 HAC1       70.2714   57.8682   41.4058 dc         1 CLA      0.029300
     90 HAA2       77.2160   58.6437   33.4057 dc         1 CLA      0.028700
     91 HAA1       78.1744   60.0106   33.8858 dc         1 CLA      0.028700
     92 H203       84.4031   61.7625   46.7787 dc         1 CLA      0.065600
     93 H202       83.1083   60.5910   47.1711 dc         1 CLA      0.065600
     94 H201       84.6772   59.9563   46.6943 dc         1 CLA      0.065600
     95 H193       82.9426   62.7941   44.9783 dc         1 CLA      0.065600
     96 H192       82.2581   61.7642   43.6502 dc         1 CLA      0.065600
     97 H191       81.5497   61.8166   45.2618 dc         1 CLA      0.065600
     98 H172       82.2270   59.0463   45.4974 dc         1 CLA      0.027600
     99 H171       83.8253   58.7064   44.8756 dc         1 CLA      0.027600
    100 H162       83.4744   59.3206   42.6865 dc         1 CLA      0.002900
    101 H161       81.8286   59.8352   42.8963 dc         1 CLA      0.002900
    102 H152       81.0394   57.6424   43.4159 dc         1 CLA      0.029100
    103 H151       82.7007   57.0400   43.4914 dc         1 CLA      0.029100
    104 H143       79.7083   57.9041   41.4485 dc         1 CLA      0.063600
    105 H142       80.9140   58.8677   40.5498 dc         1 CLA      0.063600
    106 H141       80.4013   57.2426   39.8932 dc         1 CLA      0.063600
    107 H122       83.9261   56.8088   41.3849 dc         1 CLA      0.032500
    108 H121       83.5868   58.3034   40.6799 dc         1 CLA      0.032500
    109 H112       82.4198   57.0149   38.7468 dc         1 CLA      0.006600
    110 H111       83.0852   55.4696   39.5185 dc         1 CLA      0.006600
    111 H102       85.2813   55.9870   39.0114 dc         1 CLA      0.024100
    112 H101       84.7887   57.7675   38.7765 dc         1 CLA      0.024100
    113 HHD        71.5150   57.0419   39.2727 da         1 CLA      0.174300
    114 HHC        75.1160   60.8399   43.0159 da         1 CLA      0.136800
    115 HHB        79.8650   60.3235   38.3493 da         1 CLA      0.138300
    116 HBD        75.5159   57.0202   33.7037 dc         1 CLA      0.107700
    117 HAB        76.9226   62.3702   43.6129 da         1 CLA      0.155200
    118 H93        85.6090   57.2210   35.3554 dc         1 CLA      0.069500
    119 H92        86.1012   58.0558   36.8317 dc         1 CLA      0.069500
    120 H91        86.7391   56.3220   36.4697 dc         1 CLA      0.069500
    121 H8         83.8022   57.2483   36.6330 dc         1 CLA      0.029300
    122 H72        83.1790   54.9283   37.0523 dc         1 CLA      0.044400
    123 H71        84.9079   54.4198   37.1170 dc         1 CLA      0.044400
    124 H62        85.2499   54.5901   34.8603 dc         1 CLA      0.015600
    125 H61        83.8892   55.7631   34.4971 dc         1 CLA      0.015600
    126 H52        83.6962   52.7504   35.2163 dc         1 CLA      0.033200
    127 H51        83.2509   53.4628   33.6718 dc         1 CLA      0.033200
    128 H43        80.1751   52.8834   36.1071 dc         1 CLA      0.037000
    129 H42        81.2569   51.6699   35.2761 dc         1 CLA      0.037000
    130 H41        81.6995   52.5575   36.8013 dc         1 CLA      0.037000
    131 H3A        79.5674   59.9897   35.6599 dc         1 CLA      0.041100
    132 H2A        78.4914   57.1516   35.2716 dc         1 CLA      0.083100
    133 H2         81.4643   55.7807   35.5762 da         1 CLA      0.180900
    134 H18        84.3764   60.8491   44.4632 dc         1 CLA     -0.003900
    135 H13        81.7069   56.1535   41.6698 dc         1 CLA      0.019700
    136 H12        79.9792   54.7398   33.2530 dc         1 CLA      0.120400
    137 H11        81.4996   55.1282   32.7343 dc         1 CLA      0.120400
    138 C1         68.1457   60.8269   49.1883 Z1         2 LUT      0.509236
    139 C2         67.8708   61.6475   50.4434 Z2         2 LUT     -0.434695
    140 C3         66.5279   62.3283   50.6169 Z3         2 LUT      0.437453
    141 O3         66.5832   63.1979   51.6689 S1         2 LUT     -0.547129
    142 C4         66.0496   63.0235   49.4102 Z4         2 LUT     -0.468603
    143 C5         66.5851   62.5470   48.0507 Z5         2 LUT      0.279246
    144 C6         67.5434   61.6030   47.9615 Z6         2 LUT     -0.305473
    145 C7         68.1942   61.3489   46.6672 Z7         2 LUT      0.069402
    146 C8         68.9378   62.1633   45.9348 Z8         2 LUT     -0.191631
    147 C9         69.5506   61.8168   44.6378 Z9         2 LUT      0.196698
    148 C10        70.4649   62.6606   44.1117 Y1         2 LUT     -0.208611
    149 C11        71.2234   62.6575   42.8680 Y2         2 LUT      0.030784
    150 C12        72.3436   63.3607   42.7727 Y3         2 LUT     -0.220316
    151 C13        73.2986   63.1816   41.6933 Y4         2 LUT      0.215937
    152 C14        74.5049   63.8883   41.8798 Y5         2 LUT     -0.185793
    153 C15        75.6164   63.8892   40.9409 Y6         2 LUT     -0.057835
    154 C16        67.1436   59.5935   49.2696 Y7         2 LUT     -0.405615
    155 C17        69.5331   60.2594   48.9591 Y7         2 LUT     -0.405615
    156 C18        66.1195   63.4880   46.9533 Y9         2 LUT     -0.369639
    157 C19        68.9568   60.6616   43.9062 W1         2 LUT     -0.333362
    158 C20        72.8588   62.6948   40.3877 W2         2 LUT     -0.323439
    159 C21        87.1674   66.0211   35.5100 Z1         2 LUT      0.406104
    160 C22        87.8685   65.5018   34.2514 Z2         2 LUT     -0.404965
    161 C23        88.1333   66.5457   33.1283 Z3         2 LUT      0.391255
    162 O23        88.6158   65.8693   31.9466 S1         2 LUT     -0.528210
    163 C24        86.8337   67.2825   32.9667 W6         2 LUT     -0.258361
    164 C25        85.7127   67.2896   33.7071 Z5         2 LUT      0.133546
    165 C26        85.7268   66.4910   35.0087 W8         2 LUT     -0.147008
    166 C27        84.8791   67.2471   36.0411 Z7         2 LUT      0.023843
    167 C28        83.7508   66.7440   36.6087 Z8         2 LUT     -0.216987
    168 C29        83.0992   67.0127   37.8374 Z9         2 LUT      0.206524
    169 C30        82.0727   66.1512   38.1592 Y1         2 LUT     -0.215556
    170 C31        81.2486   66.0992   39.2800 Y2         2 LUT      0.025142
    171 C32        80.1085   65.3641   39.4291 Y3         2 LUT     -0.212209
    172 C33        79.1795   65.3325   40.5347 Y4         2 LUT      0.240937
    173 C34        77.9976   64.6308   40.3979 Y5         2 LUT     -0.218862
    174 C35        76.8118   64.4765   41.1743 Y6         2 LUT     -0.023547
    175 C36        87.9893   67.1727   36.1845 Y7         2 LUT     -0.393485
    176 C37        86.9286   64.8689   36.5058 Y7         2 LUT     -0.393485
    177 C38        84.3932   67.7999   33.1324 Y9         2 LUT     -0.387526
    178 C39        83.4446   68.0797   38.8629 W1         2 LUT     -0.322618
    179 C40        79.5718   65.9460   41.8132 W2         2 LUT     -0.358472
    180 H403       80.6323   65.9113   41.9419 R7         2 LUT      0.097720
    181 H402       79.2552   67.0223   41.8921 R7         2 LUT      0.097720
    182 H401       79.1573   65.5115   42.7536 R7         2 LUT      0.097720
    183 H393       84.3070   67.9480   39.4884 R4         2 LUT      0.082505
    184 H392       83.6800   68.9824   38.2972 R4         2 LUT      0.082505
    185 H391       82.6350   68.4115   39.5206 R4         2 LUT      0.082505
    186 H383       83.8362   68.1735   33.9757 R1         2 LUT      0.104030
    187 H382       84.7163   68.5195   32.3453 R1         2 LUT      0.104030
    188 H381       83.7833   67.0192   32.7286 R1         2 LUT      0.104030
    189 H373       87.7987   64.2372   36.5802 T4         2 LUT      0.089537
    190 H372       86.8097   65.1531   37.5333 T4         2 LUT      0.089537
    191 H371       86.0366   64.3600   36.2819 T4         2 LUT      0.089537
    192 H363       88.9773   66.7940   36.4329 T4         2 LUT      0.089537
    193 H362       88.1728   67.9995   35.5175 T4         2 LUT      0.089537
    194 H361       87.4424   67.4137   37.0976 T4         2 LUT      0.089537
    195 H222       88.9320   65.1492   34.5146 U2         2 LUT      0.127376
    196 H221       87.3408   64.5525   33.9006 U2         2 LUT      0.127376
    197 H203       72.6892   61.6198   40.2282 R7         2 LUT      0.087068
    198 H202       71.8960   63.2424   40.0984 R7         2 LUT      0.087068
    199 H201       73.5780   62.9937   39.5787 R7         2 LUT      0.087068
    200 H193       69.4910   59.7109   43.9173 R4         2 LUT      0.089716
    201 H192       67.8656   60.5166   44.0634 R4         2 LUT      0.089716
    202 H191       68.8513   61.0445   42.8690 R4         2 LUT      0.089716
    203 H183       66.6448   64.4287   46.7900 R1         2 LUT      0.094572
    204 H182       65.9657   62.8962   46.0194 R1         2 LUT      0.094572
    205 H181       65.1369   63.8241   47.1841 R1         2 LUT      0.094572
    206 H173       69.8768   59.7120   49.8669 T4         2 LUT      0.093752
    207 H172       69.6131   59.5046   48.1940 T4         2 LUT      0.093752
    208 H171       70.3073   61.0604   48.7228 T4         2 LUT      0.093752
    209 H163       67.4869   58.9695   50.0736 T4         2 LUT      0.093752
    210 H162       66.1272   59.8184   49.5181 T4         2 LUT      0.093752
    211 H161       67.1569   59.0548   48.2877 T4         2 LUT      0.093752
    212 HO3        66.3570   62.9246   52.5580 Q1         2 LUT      0.300121
    213 H8         69.2442   63.1206   46.3489 U7         2 LUT      0.080784
    214 H7         68.0147   60.3887   46.2509 U6         2 LUT      0.042190
    215 H42        64.9356   62.9854   49.5238 U5         2 LUT      0.145166
    216 H41        66.4549   64.0343   49.4567 U5         2 LUT      0.145166
    217 H35        76.7458   64.9659   42.1827 T3         2 LUT      0.077919
    218 H34        77.8121   64.1081   39.5048 T2         2 LUT      0.073626
    219 H32        79.9528   64.6228   38.6235 T1         2 LUT      0.092510
    220 H31        81.4291   66.8160   40.0984 U9         2 LUT      0.070048
    221 H30        81.7705   65.4654   37.3972 U8         2 LUT      0.085442
    222 H3         65.8204   61.4824   50.6893 U3         2 LUT     -0.031596
    223 H28        83.3728   65.9230   35.9257 U7         2 LUT      0.084728
    224 H27        85.1302   68.1949   36.5185 U6         2 LUT      0.087291
    225 H26        85.2230   65.5989   34.7447 Q6         2 LUT      0.075325
    226 H24        86.7706   67.9097   32.1096 Q5         2 LUT      0.094482
    227 H23        88.8614   67.3329   33.3612 U3         2 LUT     -0.024869
    228 H22        68.0960   60.9137   51.2592 U2         2 LUT      0.127376
    229 H21        68.6015   62.3917   50.4610 U2         2 LUT      0.127376
    230 H15        75.5953   63.0815   40.1069 T3         2 LUT      0.093200
    231 H14        74.8062   64.4701   42.7715 T2         2 LUT      0.068865
    232 H12        72.6034   64.0305   43.6212 T1         2 LUT      0.095507
    233 H11        70.9496   61.8776   42.0902 U9         2 LUT      0.068930
    234 H10        70.7512   63.4077   44.8109 U8         2 LUT      0.083911
    235 H1         87.9318   65.7019   31.2817 Q1         2 LUT      0.297311
@<TRIPOS>BOND
    1     6     1 1
    2     7     2 1
    3     8     3 1
    4     9     4 1
    5    11     4 1
    6    12     6 1
    7    13     9 1
    8    16     9 1
    9    25     5 1
   10    25    16 1
   11    26    10 1
   12    26    17 1
   13    27    18 1
   14    28    14 1
   15    28    19 1
   16    29    12 1
   17    30    13 1
   18    31    24 1
   19    32     1 1
   20    32    25 1
   21    33    21 1
   22    33    26 1
   23    34    22 1
   24    34    27 1
   25    35    23 1
   26    35    28 1
   27    36    12 1
   28    36    24 1
   29    37    13 1
   30    37    15 1
   31    38    31 1
   32    39    20 1
   33    39    32 1
   34    40     2 1
   35    40    33 1
   36    41     3 1
   37    41    34 1
   38    42     4 1
   39    42    35 1
   40    43    38 1
   41    44     5 1
   42    44    17 1
   43    44    39 1
   44    45    10 1
   45    45    18 1
   46    45    40 1
   47    46    19 1
   48    46    41 1
   49    47    14 1
   50    47    16 1
   51    47    42 1
   52    48    38 1
   53    49    48 1
   54    50    49 1
   55    51    50 1
   56    52    51 1
   57    53    51 1
   58    54    53 1
   59    55    54 1
   60    56    55 1
   61    57    56 1
   62    58    56 1
   63    59    58 1
   64    60    59 1
   65    61    60 1
   66    62    61 1
   67    63    61 1
   68    64    27 1
   69    64    46 1
   70    65     5 1
   71    65    10 1
   72    65    64 1
   73    65    14 1
   74    66    23 1
   75    67    23 1
   76    68    23 1
   77    69    22 1
   78    70    22 1
   79    71    22 1
   80    72    21 1
   81    73    21 1
   82    74    21 1
   83    75    20 1
   84    76    20 1
   85    77    20 1
   86    78    15 1
   87    79    15 1
   88    80    15 1
   89    81     8 1
   90    82     8 1
   91    83     8 1
   92    84     7 1
   93    85     7 1
   94    86     6 1
   95    87     6 1
   96    88     3 1
   97    89     3 1
   98    90     1 1
   99    91     1 1
  100    92    63 1
  101    93    63 1
  102    94    63 1
  103    95    62 1
  104    96    62 1
  105    97    62 1
  106    98    60 1
  107    99    60 1
  108   100    59 1
  109   101    59 1
  110   102    58 1
  111   103    58 1
  112   104    57 1
  113   105    57 1
  114   106    57 1
  115   107    55 1
  116   108    55 1
  117   109    54 1
  118   110    54 1
  119   111    53 1
  120   112    53 1
  121   113    19 1
  122   114    18 1
  123   115    17 1
  124   116     9 1
  125   117     2 1
  126   118    52 1
  127   119    52 1
  128   120    52 1
  129   121    51 1
  130   122    50 1
  131   123    50 1
  132   124    49 1
  133   125    49 1
  134   126    48 1
  135   127    48 1
  136   128    43 1
  137   129    43 1
  138   130    43 1
  139   131    39 1
  140   132    32 1
  141   133    31 1
  142   134    61 1
  143   135    56 1
  144   136    24 1
  145   137    24 1
  146   139   138 1
  147   140   139 1
  148   141   140 1
  149   142   140 1
  150   143   142 1
  151   144   138 1
  152   144   143 1
  153   145   144 1
  154   146   145 1
  155   147   146 1
  156   148   147 1
  157   149   148 1
  158   150   149 1
  159   151   150 1
  160   152   151 1
  161   153   152 1
  162   154   138 1
  163   155   138 1
  164   156   143 1
  165   157   147 1
  166   158   151 1
  167   160   159 1
  168   161   160 1
  169   162   161 1
  170   163   161 1
  171   164   163 1
  172   165   159 1
  173   165   164 1
  174   166   165 1
  175   167   166 1
  176   168   167 1
  177   169   168 1
  178   170   169 1
  179   171   170 1
  180   172   171 1
  181   173   172 1
  182   174   153 1
  183   174   173 1
  184   175   159 1
  185   176   159 1
  186   177   164 1
  187   178   168 1
  188   179   172 1
  189   180   179 1
  190   181   179 1
  191   182   179 1
  192   183   178 1
  193   184   178 1
  194   185   178 1
  195   186   177 1
  196   187   177 1
  197   188   177 1
  198   189   176 1
  199   190   176 1
  200   191   176 1
  201   192   175 1
  202   193   175 1
  203   194   175 1
  204   195   160 1
  205   196   160 1
  206   197   158 1
  207   198   158 1
  208   199   158 1
  209   200   157 1
  210   201   157 1
  211   202   157 1
  212   203   156 1
  213   204   156 1
  214   205   156 1
  215   206   155 1
  216   207   155 1
  217   208   155 1
  218   209   154 1
  219   210   154 1
  220   211   154 1
  221   212   141 1
  222   213   146 1
  223   214   145 1
  224   215   142 1
  225   216   142 1
  226   217   174 1
  227   218   173 1
  228   219   171 1
  229   220   170 1
  230   221   169 1
  231   222   140 1
  232   223   167 1
  233   224   166 1
  234   225   165 1
  235   226   163 1
  236   227   161 1
  237   228   139 1
  238   229   139 1
  239   230   153 1
  240   231   152 1
  241   232   150 1
  242   233   149 1
  243   234   148 1
  244   235   162 1
  245   65    153 1
  246   65    174 1
@<TRIPOS>SUBSTRUCTURE
      1 CLA               1 ****               0 ****  **** 
      2 LUT             138 ****               0 ****  **** 
