@<TRIPOS>MOLECULE
Cpptraj generated mol2 file.
  235   246     2     0     0
SMALL
USER_CHARGES


@<TRIPOS>ATOM
      1 CAA        77.8173   57.7069   34.7843 a2         1 CLA     -0.055900
      2 CAB        77.1673   62.1376   43.4492 c8         1 CLA     -0.148500
      3 CAC        70.5451   57.2663   43.1910 a2         1 CLA     -0.012600
      4 CAD        73.4851   55.2202   35.9418 ck         1 CLA      0.398800
      5 NA         76.4834   58.1479   38.1213 ns         1 CLA     -0.225500
      6 CBA        79.0945   57.4225   33.9641 a2         1 CLA     -0.135000
      7 CBB        76.2105   62.7602   44.1884 c0         1 CLA     -0.395200
      8 CBC        70.8548   55.7475   43.1888 a3         1 CLA     -0.037700
      9 CBD        74.9653   55.7239   35.6402 a1         1 CLA     -0.053900
     10 NB         76.1221   59.8609   40.7031 nm         1 CLA     -0.295700
     11 OBD        72.9454   54.3305   35.2807 o2         1 CLA     -0.494600
     12 CGA        79.5346   55.9477   33.7665 c4         1 CLA      0.827000
     13 CGD        75.9075   54.6059   35.5415 c4         1 CLA      0.655300
     14 ND         73.7466   57.1770   38.7438 nm         1 CLA     -0.291600
     15 CED        76.9620   53.0512   36.9805 a3         1 CLA      0.005400
     16 CHA        75.2785   56.7657   36.7644 cs         1 CLA     -0.123800
     17 CHB        78.0368   59.9007   39.0805 aa         1 CLA     -0.291900
     18 CHC        74.7583   60.1861   42.6791 aa         1 CLA     -0.090400
     19 CHD        71.8195   56.9911   40.2819 aa         1 CLA     -0.052000
     20 CMA        79.8816   57.4777   37.9399 a3         1 CLA     -0.230700
     21 CMB        79.2571   61.9272   41.1359 a3         1 CLA     -0.180800
     22 CMC        72.3247   59.5834   44.6295 a3         1 CLA     -0.134000
     23 CMD        70.6882   55.0321   38.0065 a3         1 CLA     -0.141100
     24 C1         80.2515   54.0593   34.9604 a2         1 CLA      0.023000
     25 C1A        76.3756   57.5635   36.9306 ac         1 CLA     -0.015100
     26 C1B        77.3881   60.2857   40.2537 cr         1 CLA      0.054700
     27 C1C        73.6444   59.3493   42.3686 cn         1 CLA     -0.005600
     28 C1D        72.4758   56.6287   39.0824 ap         1 CLA     -0.047300
     29 O1A        79.0822   55.1696   33.0135 o2         1 CLA     -0.610800
     30 O1D        76.7687   54.4805   34.6831 o2         1 CLA     -0.558200
     31 C2         80.8674   53.9249   36.3434 c8         1 CLA     -0.325100
     32 C2A        77.7890   57.3769   36.2733 a1         1 CLA      0.098600
     33 C2B        77.9335   61.1619   41.2754 cb         1 CLA      0.088500
     34 C2C        72.5132   58.9684   43.2262 cb         1 CLA      0.053700
     35 C2D        72.0161   55.7974   38.0537 cb         1 CLA      0.058900
     36 O2A        80.2091   55.5497   34.8494 o1         1 CLA     -0.437200
     37 O2D        75.7633   53.8468   36.7179 o1         1 CLA     -0.357600
     38 C3         81.7442   52.9569   36.7269 c5         1 CLA      0.031200
     39 C3A        78.7083   58.2512   37.1844 a1         1 CLA      0.166800
     40 C3B        77.0117   61.3507   42.2579 cb         1 CLA      0.035000
     41 C3C        71.7349   57.9955   42.5882 cb         1 CLA     -0.089900
     42 C3D        73.0349   55.7967   37.1026 cb         1 CLA     -0.035900
     43 C4         81.3182   51.6625   37.3426 a3         1 CLA     -0.053300
     44 C4A        77.7026   58.7877   38.2412 ac         1 CLA      0.001800
     45 C4B        75.9035   60.4668   41.9142 cn         1 CLA     -0.020900
     46 C4C        72.3154   57.8660   41.2665 cr         1 CLA     -0.044400
     47 C4D        74.1238   56.6784   37.5323 c6         1 CLA     -0.046000
     48 C5         83.2896   53.1114   36.4713 a2         1 CLA     -0.070400
     49 C6         83.9208   54.4216   36.9122 a2         1 CLA      0.043900
     50 C7         83.8395   54.9740   38.3709 a2         1 CLA     -0.150000
     51 C8         84.8680   56.1193   38.6770 a1         1 CLA      0.064200
     52 C9         86.3736   55.6502   38.4879 a3         1 CLA     -0.259300
     53 C10        84.7948   56.7540   40.0732 a2         1 CLA     -0.071900
     54 C11        83.3030   56.9706   40.6494 a2         1 CLA      0.014500
     55 C12        83.1203   57.8717   41.9121 a2         1 CLA     -0.112100
     56 C13        84.1095   57.6298   43.1714 a1         1 CLA      0.089200
     57 C14        83.8927   56.2722   43.9167 a3         1 CLA     -0.239100
     58 C15        84.1040   58.8151   44.1791 a2         1 CLA     -0.102200
     59 C16        82.8094   59.3407   44.6619 a2         1 CLA      0.023900
     60 C17        82.8483   60.4520   45.6207 a2         1 CLA     -0.105700
     61 C18        81.5638   61.1632   46.1468 a1         1 CLA      0.206800
     62 C19        81.9066   62.2711   47.1198 a3         1 CLA     -0.280100
     63 C20        80.5680   61.7015   45.0970 a3         1 CLA     -0.280100
     64 NC         73.5311   58.5512   41.2522 nx         1 CLA     -0.309200
     65 MG         74.9631   58.5431   39.7035 mg         1 CLA      0.895000
     66 HMD3       70.8736   54.3040   37.2477 dc         1 CLA      0.064300
     67 HMD2       70.5352   54.5532   38.9693 dc         1 CLA      0.064300
     68 HMD1       69.7225   55.5764   37.8598 dc         1 CLA      0.064300
     69 HMC3       71.2299   59.5209   44.8959 dc         1 CLA      0.052100
     70 HMC2       72.8408   58.9589   45.3950 dc         1 CLA      0.052100
     71 HMC1       72.7400   60.5927   44.5969 dc         1 CLA      0.052100
     72 HMB3       79.4741   62.5207   42.0121 dc         1 CLA      0.063600
     73 HMB2       80.1063   61.2770   40.8191 dc         1 CLA      0.063600
     74 HMB1       79.1154   62.6832   40.3193 dc         1 CLA      0.063600
     75 HMA3       79.5176   56.5110   38.3807 dc         1 CLA      0.058300
     76 HMA2       80.5710   57.2020   37.0976 dc         1 CLA      0.058300
     77 HMA1       80.3295   58.1443   38.6012 dc         1 CLA      0.058300
     78 HED3       77.8335   53.6271   36.6777 dc         1 CLA      0.079300
     79 HED2       76.9515   52.7885   38.0450 dc         1 CLA      0.079300
     80 HED1       76.8943   52.2144   36.3129 dc         1 CLA      0.079300
     81 HBC3       70.1445   55.2617   43.8132 dc         1 CLA      0.016300
     82 HBC2       70.7842   55.4179   42.1975 dc         1 CLA      0.016300
     83 HBC1       71.8507   55.6523   43.6593 dc         1 CLA      0.016300
     84 HBB2       76.5793   63.4776   45.0297 da         1 CLA      0.183000
     85 HBB1       75.1817   62.5774   43.9419 da         1 CLA      0.183000
     86 HBA2       78.9500   57.7308   32.9365 dc         1 CLA      0.029400
     87 HBA1       79.8520   57.9521   34.4789 dc         1 CLA      0.029400
     88 HAC2       70.3720   57.5443   44.2679 dc         1 CLA      0.029300
     89 HAC1       69.6313   57.4792   42.5605 dc         1 CLA      0.029300
     90 HAA2       77.0538   57.1056   34.4116 dc         1 CLA      0.028700
     91 HAA1       77.3366   58.7097   34.7167 dc         1 CLA      0.028700
     92 H203       80.0195   60.9155   44.6187 dc         1 CLA      0.065600
     93 H202       79.7574   62.2484   45.5267 dc         1 CLA      0.065600
     94 H201       81.0753   62.2737   44.3132 dc         1 CLA      0.065600
     95 H193       82.8297   62.7356   46.8068 dc         1 CLA      0.065600
     96 H192       81.2164   63.0953   47.0723 dc         1 CLA      0.065600
     97 H191       82.0905   62.0178   48.1566 dc         1 CLA      0.065600
     98 H172       83.3742   60.1439   46.5033 dc         1 CLA      0.027600
     99 H171       83.5615   61.0700   45.1319 dc         1 CLA      0.027600
    100 H162       82.1659   59.6646   43.8226 dc         1 CLA      0.002900
    101 H161       82.2210   58.5362   45.1282 dc         1 CLA      0.002900
    102 H152       84.8184   58.6810   44.9530 dc         1 CLA      0.029100
    103 H151       84.4539   59.7159   43.5273 dc         1 CLA      0.029100
    104 H143       84.3309   56.2471   44.8288 dc         1 CLA      0.063600
    105 H142       82.8163   56.0980   44.1553 dc         1 CLA      0.063600
    106 H141       84.2900   55.3586   43.3823 dc         1 CLA      0.063600
    107 H122       83.3039   58.9111   41.5129 dc         1 CLA      0.032500
    108 H121       82.1261   57.6740   42.2985 dc         1 CLA      0.032500
    109 H112       82.6222   57.3589   39.8769 dc         1 CLA      0.006600
    110 H111       82.9437   55.9261   41.0178 dc         1 CLA      0.006600
    111 H102       85.3984   56.2016   40.8133 dc         1 CLA      0.024100
    112 H101       85.3968   57.6398   40.1018 dc         1 CLA      0.024100
    113 HHD        70.8956   56.4073   40.4825 da         1 CLA      0.174300
    114 HHC        74.6361   60.7952   43.5924 da         1 CLA      0.136800
    115 HHB        79.0854   60.3113   39.0438 da         1 CLA      0.138300
    116 HBD        74.9079   56.1894   34.6601 dc         1 CLA      0.107700
    117 HAB        78.1476   62.4064   43.7766 da         1 CLA      0.155200
    118 H93        86.5855   54.8454   39.2307 dc         1 CLA      0.069500
    119 H92        86.5292   55.2697   37.5073 dc         1 CLA      0.069500
    120 H91        87.0593   56.4162   38.5697 dc         1 CLA      0.069500
    121 H8         84.7123   56.9391   37.9564 dc         1 CLA      0.029300
    122 H72        82.8477   55.3905   38.6390 dc         1 CLA      0.044400
    123 H71        84.0855   54.1087   38.8894 dc         1 CLA      0.044400
    124 H62        84.9945   54.3994   36.6329 dc         1 CLA      0.015600
    125 H61        83.4042   55.1658   36.3349 dc         1 CLA      0.015600
    126 H52        83.8250   52.2463   36.9279 dc         1 CLA      0.033200
    127 H51        83.3819   53.0152   35.4137 dc         1 CLA      0.033200
    128 H43        80.2281   51.7524   37.3350 dc         1 CLA      0.037000
    129 H42        81.6245   50.7957   36.8027 dc         1 CLA      0.037000
    130 H41        81.6685   51.5309   38.3380 dc         1 CLA      0.037000
    131 H3A        79.1608   59.1142   36.5948 dc         1 CLA      0.041100
    132 H2A        78.1188   56.3148   36.4164 dc         1 CLA      0.083100
    133 H2         80.7550   54.7014   37.0158 da         1 CLA      0.180900
    134 H18        80.9992   60.3575   46.7096 dc         1 CLA     -0.003900
    135 H13        85.1297   57.7395   42.7966 dc         1 CLA      0.019700
    136 H12        79.2468   53.5537   34.9977 dc         1 CLA      0.120400
    137 H11        80.9699   53.5339   34.3138 dc         1 CLA      0.120400
    138 C1         67.2874   61.1059   50.6467 Z1         2 LUT      0.509236
    139 C2         65.9048   61.0477   51.2631 Z2         2 LUT     -0.434695
    140 C3         65.3752   62.4045   51.7692 Z3         2 LUT      0.437453
    141 O3         65.8964   62.7105   53.1189 S1         2 LUT     -0.547129
    142 C4         65.6826   63.5553   50.7997 Z4         2 LUT     -0.468603
    143 C5         66.4572   63.2240   49.5583 Z5         2 LUT      0.279246
    144 C6         67.2372   62.1101   49.4729 Z6         2 LUT     -0.305473
    145 C7         67.7933   61.6667   48.1433 Z7         2 LUT      0.069402
    146 C8         68.7399   62.3152   47.4152 Z8         2 LUT     -0.191631
    147 C9         69.1540   61.9532   46.0494 Z9         2 LUT      0.196698
    148 C10        70.2006   62.6350   45.5093 Y1         2 LUT     -0.208611
    149 C11        70.7928   62.5187   44.2021 Y2         2 LUT      0.030784
    150 C12        71.8839   63.2433   43.7616 Y3         2 LUT     -0.220316
    151 C13        72.5291   63.1939   42.4413 Y4         2 LUT      0.215937
    152 C14        73.6870   63.9648   42.3622 Y5         2 LUT     -0.185793
    153 C15        74.6549   64.0453   41.2943 Y6         2 LUT     -0.057835
    154 C16        67.7713   59.7078   50.3009 Y7         2 LUT     -0.405615
    155 C17        68.2084   61.4965   51.7750 Y7         2 LUT     -0.405615
    156 C18        66.0986   64.1668   48.3671 Y9         2 LUT     -0.369639
    157 C19        68.3044   60.8493   45.3414 W1         2 LUT     -0.333362
    158 C20        71.8314   62.4417   41.2834 W2         2 LUT     -0.323439
    159 C21        86.0500   65.3500   35.5604 Z1         2 LUT      0.406104
    160 C22        86.7945   64.9722   34.2812 Z2         2 LUT     -0.404965
    161 C23        86.7666   66.0177   33.2338 Z3         2 LUT      0.391255
    162 O23        87.5340   65.3092   32.2104 S1         2 LUT     -0.528210
    163 C24        85.3826   66.7027   33.0051 W6         2 LUT     -0.258361
    164 C25        84.3528   66.5590   33.8715 Z5         2 LUT      0.133546
    165 C26        84.5070   65.7983   35.1415 W8         2 LUT     -0.147008
    166 C27        83.8300   66.6613   36.2045 Z7         2 LUT      0.023843
    167 C28        82.7429   66.1885   36.8090 Z8         2 LUT     -0.216987
    168 C29        82.1241   66.5719   38.1090 Z9         2 LUT      0.206524
    169 C30        80.8792   65.9906   38.4030 Y1         2 LUT     -0.215556
    170 C31        80.1414   66.2146   39.5722 Y2         2 LUT      0.025142
    171 C32        78.9645   65.6083   39.7185 Y3         2 LUT     -0.212209
    172 C33        78.0266   65.5714   40.8483 Y4         2 LUT      0.240937
    173 C34        76.8094   64.8821   40.6602 Y5         2 LUT     -0.218862
    174 C35        75.7745   64.6870   41.5882 Y6         2 LUT     -0.023547
    175 C36        86.9653   66.3742   36.3507 Y7         2 LUT     -0.393485
    176 C37        86.0746   64.0059   36.3245 Y7         2 LUT     -0.393485
    177 C38        83.0483   67.1285   33.4521 Y9         2 LUT     -0.387526
    178 C39        82.9311   67.4278   39.0405 W1         2 LUT     -0.322618
    179 C40        78.4258   66.3050   42.1290 W2         2 LUT     -0.358472
    180 H403       78.4715   67.3932   42.0000 R7         2 LUT      0.097720
    181 H402       77.6766   66.1243   42.8864 R7         2 LUT      0.097720
    182 H401       79.4221   66.0146   42.3587 R7         2 LUT      0.097720
    183 H393       83.9945   67.2924   38.9925 R4         2 LUT      0.082505
    184 H392       82.8561   68.4234   38.7213 R4         2 LUT      0.082505
    185 H391       82.6255   67.3406   40.0621 R4         2 LUT      0.082505
    186 H383       83.2587   67.7145   32.5329 R1         2 LUT      0.104030
    187 H382       82.3243   66.3998   33.1651 R1         2 LUT      0.104030
    188 H381       82.5797   67.7826   34.1474 R1         2 LUT      0.104030
    189 H373       87.1578   63.8009   36.4393 T4         2 LUT      0.089537
    190 H372       85.7009   64.0467   37.3692 T4         2 LUT      0.089537
    191 H371       85.7100   63.1152   35.8340 T4         2 LUT      0.089537
    192 H363       88.0101   66.1781   36.1593 T4         2 LUT      0.089537
    193 H362       86.9580   67.3293   35.9135 T4         2 LUT      0.089537
    194 H361       86.7029   66.4242   37.4189 T4         2 LUT      0.089537
    195 H222       87.8857   64.7624   34.4294 U2         2 LUT      0.127376
    196 H221       86.3507   64.0795   33.8492 U2         2 LUT      0.127376
    197 H203       72.4640   62.2841   40.4185 R7         2 LUT      0.087068
    198 H202       71.6670   61.4100   41.6181 R7         2 LUT      0.087068
    199 H201       70.9558   62.9993   40.9181 R7         2 LUT      0.087068
    200 H193       67.2542   61.0738   45.3262 R4         2 LUT      0.089716
    201 H192       68.4998   60.6708   44.2938 R4         2 LUT      0.089716
    202 H191       68.3825   59.8676   45.8184 R4         2 LUT      0.089716
    203 H183       67.0378   64.6376   47.9235 R1         2 LUT      0.094572
    204 H182       65.7007   63.4654   47.6079 R1         2 LUT      0.094572
    205 H181       65.3268   65.0022   48.5732 R1         2 LUT      0.094572
    206 H173       68.0545   62.6010   51.9212 T4         2 LUT      0.093752
    207 H172       68.1369   61.0364   52.7899 T4         2 LUT      0.093752
    208 H171       69.2756   61.4651   51.4561 T4         2 LUT      0.093752
    209 H163       67.6281   59.0652   51.1697 T4         2 LUT      0.093752
    210 H162       67.2314   59.2211   49.4927 T4         2 LUT      0.093752
    211 H161       68.8479   59.6439   50.1857 T4         2 LUT      0.093752
    212 HO3        65.4405   62.1814   53.7738 Q1         2 LUT      0.300121
    213 H8         69.1826   63.2057   47.9612 U7         2 LUT      0.080784
    214 H7         67.4946   60.7205   47.7900 U6         2 LUT      0.042190
    215 H42        64.7102   63.9154   50.4660 U5         2 LUT      0.145166
    216 H41        66.2179   64.3884   51.2222 U5         2 LUT      0.145166
    217 H35        75.9488   65.1811   42.5087 T3         2 LUT      0.077919
    218 H34        76.5804   64.5325   39.6597 T2         2 LUT      0.073626
    219 H32        78.6785   65.0180   38.8360 T1         2 LUT      0.092510
    220 H31        80.5131   66.8258   40.3876 U9         2 LUT      0.070048
    221 H30        80.4357   65.3944   37.6109 U8         2 LUT      0.085442
    222 H3         64.2526   62.2267   51.9034 U3         2 LUT     -0.031596
    223 H28        82.1590   65.3364   36.3117 U7         2 LUT      0.084728
    224 H27        84.4699   67.2776   36.7514 U6         2 LUT      0.087291
    225 H26        83.8885   64.9089   35.0867 Q6         2 LUT      0.075325
    226 H24        85.1938   67.0210   32.0440 Q5         2 LUT      0.094482
    227 H23        87.3848   66.8928   33.5972 U3         2 LUT     -0.024869
    228 H22        65.2149   60.7474   50.5230 U2         2 LUT      0.127376
    229 H21        65.9070   60.4336   52.1976 U2         2 LUT      0.127376
    230 H15        74.5275   63.6924   40.2454 T3         2 LUT      0.093200
    231 H14        73.9404   64.5695   43.2127 T2         2 LUT      0.068865
    232 H12        72.3753   63.9202   44.4673 T1         2 LUT      0.095507
    233 H11        70.2944   61.7970   43.5398 U9         2 LUT      0.068930
    234 H10        70.7215   63.4118   45.9773 U8         2 LUT      0.083911
    235 H1         87.1875   65.3465   31.3043 Q1         2 LUT      0.297311
@<TRIPOS>BOND
    1     6     1 1
    2     7     2 1
    3     8     3 1
    4     9     4 1
    5    11     4 1
    6    12     6 1
    7    13     9 1
    8    16     9 1
    9    25     5 1
   10    25    16 1
   11    26    10 1
   12    26    17 1
   13    27    18 1
   14    28    14 1
   15    28    19 1
   16    29    12 1
   17    30    13 1
   18    31    24 1
   19    32     1 1
   20    32    25 1
   21    33    21 1
   22    33    26 1
   23    34    22 1
   24    34    27 1
   25    35    23 1
   26    35    28 1
   27    36    12 1
   28    36    24 1
   29    37    13 1
   30    37    15 1
   31    38    31 1
   32    39    20 1
   33    39    32 1
   34    40     2 1
   35    40    33 1
   36    41     3 1
   37    41    34 1
   38    42     4 1
   39    42    35 1
   40    43    38 1
   41    44     5 1
   42    44    17 1
   43    44    39 1
   44    45    10 1
   45    45    18 1
   46    45    40 1
   47    46    19 1
   48    46    41 1
   49    47    14 1
   50    47    16 1
   51    47    42 1
   52    48    38 1
   53    49    48 1
   54    50    49 1
   55    51    50 1
   56    52    51 1
   57    53    51 1
   58    54    53 1
   59    55    54 1
   60    56    55 1
   61    57    56 1
   62    58    56 1
   63    59    58 1
   64    60    59 1
   65    61    60 1
   66    62    61 1
   67    63    61 1
   68    64    27 1
   69    64    46 1
   70    65     5 1
   71    65    10 1
   72    65    64 1
   73    65    14 1
   74    66    23 1
   75    67    23 1
   76    68    23 1
   77    69    22 1
   78    70    22 1
   79    71    22 1
   80    72    21 1
   81    73    21 1
   82    74    21 1
   83    75    20 1
   84    76    20 1
   85    77    20 1
   86    78    15 1
   87    79    15 1
   88    80    15 1
   89    81     8 1
   90    82     8 1
   91    83     8 1
   92    84     7 1
   93    85     7 1
   94    86     6 1
   95    87     6 1
   96    88     3 1
   97    89     3 1
   98    90     1 1
   99    91     1 1
  100    92    63 1
  101    93    63 1
  102    94    63 1
  103    95    62 1
  104    96    62 1
  105    97    62 1
  106    98    60 1
  107    99    60 1
  108   100    59 1
  109   101    59 1
  110   102    58 1
  111   103    58 1
  112   104    57 1
  113   105    57 1
  114   106    57 1
  115   107    55 1
  116   108    55 1
  117   109    54 1
  118   110    54 1
  119   111    53 1
  120   112    53 1
  121   113    19 1
  122   114    18 1
  123   115    17 1
  124   116     9 1
  125   117     2 1
  126   118    52 1
  127   119    52 1
  128   120    52 1
  129   121    51 1
  130   122    50 1
  131   123    50 1
  132   124    49 1
  133   125    49 1
  134   126    48 1
  135   127    48 1
  136   128    43 1
  137   129    43 1
  138   130    43 1
  139   131    39 1
  140   132    32 1
  141   133    31 1
  142   134    61 1
  143   135    56 1
  144   136    24 1
  145   137    24 1
  146   139   138 1
  147   140   139 1
  148   141   140 1
  149   142   140 1
  150   143   142 1
  151   144   138 1
  152   144   143 1
  153   145   144 1
  154   146   145 1
  155   147   146 1
  156   148   147 1
  157   149   148 1
  158   150   149 1
  159   151   150 1
  160   152   151 1
  161   153   152 1
  162   154   138 1
  163   155   138 1
  164   156   143 1
  165   157   147 1
  166   158   151 1
  167   160   159 1
  168   161   160 1
  169   162   161 1
  170   163   161 1
  171   164   163 1
  172   165   159 1
  173   165   164 1
  174   166   165 1
  175   167   166 1
  176   168   167 1
  177   169   168 1
  178   170   169 1
  179   171   170 1
  180   172   171 1
  181   173   172 1
  182   174   153 1
  183   174   173 1
  184   175   159 1
  185   176   159 1
  186   177   164 1
  187   178   168 1
  188   179   172 1
  189   180   179 1
  190   181   179 1
  191   182   179 1
  192   183   178 1
  193   184   178 1
  194   185   178 1
  195   186   177 1
  196   187   177 1
  197   188   177 1
  198   189   176 1
  199   190   176 1
  200   191   176 1
  201   192   175 1
  202   193   175 1
  203   194   175 1
  204   195   160 1
  205   196   160 1
  206   197   158 1
  207   198   158 1
  208   199   158 1
  209   200   157 1
  210   201   157 1
  211   202   157 1
  212   203   156 1
  213   204   156 1
  214   205   156 1
  215   206   155 1
  216   207   155 1
  217   208   155 1
  218   209   154 1
  219   210   154 1
  220   211   154 1
  221   212   141 1
  222   213   146 1
  223   214   145 1
  224   215   142 1
  225   216   142 1
  226   217   174 1
  227   218   173 1
  228   219   171 1
  229   220   170 1
  230   221   169 1
  231   222   140 1
  232   223   167 1
  233   224   166 1
  234   225   165 1
  235   226   163 1
  236   227   161 1
  237   228   139 1
  238   229   139 1
  239   230   153 1
  240   231   152 1
  241   232   150 1
  242   233   149 1
  243   234   148 1
  244   235   162 1
  245   65    153 1
  246   65    174 1
@<TRIPOS>SUBSTRUCTURE
      1 CLA               1 ****               0 ****  **** 
      2 LUT             138 ****               0 ****  **** 
