@<TRIPOS>MOLECULE
Cpptraj generated mol2 file.
  235   246     2     0     0
SMALL
USER_CHARGES


@<TRIPOS>ATOM
      1 CAA        79.2771   57.5678   34.6965 a2         1 CLA     -0.055900
      2 CAB        79.1566   61.8506   43.4936 c8         1 CLA     -0.148500
      3 CAC        72.5206   57.5444   43.2958 a2         1 CLA     -0.012600
      4 CAD        75.1730   54.9527   36.2271 ck         1 CLA      0.398800
      5 NA         78.3241   58.0668   38.0919 ns         1 CLA     -0.225500
      6 CBA        80.3928   57.0983   33.7708 a2         1 CLA     -0.135000
      7 CBB        80.2543   62.1426   44.2640 c0         1 CLA     -0.395200
      8 CBC        72.8466   56.0969   43.5686 a3         1 CLA     -0.037700
      9 CBD        76.6784   55.3625   35.8497 a1         1 CLA     -0.053900
     10 NB         78.2461   59.6158   40.7250 nm         1 CLA     -0.295700
     11 OBD        74.5574   54.0339   35.6230 o2         1 CLA     -0.494600
     12 CGA        80.7435   55.6204   33.6649 c4         1 CLA      0.827000
     13 CGD        77.5716   54.1661   36.0304 c4         1 CLA      0.655300
     14 ND         75.5408   57.2104   38.7828 nm         1 CLA     -0.291600
     15 CED        77.8504   52.0991   37.1828 a3         1 CLA      0.005400
     16 CHA        76.9878   56.5403   36.8236 cs         1 CLA     -0.123800
     17 CHB        80.1124   59.3364   39.1031 aa         1 CLA     -0.291900
     18 CHC        76.8854   60.1496   42.6717 aa         1 CLA     -0.090400
     19 CHD        73.7294   57.1137   40.4202 aa         1 CLA     -0.052000
     20 CMA        81.7836   57.3372   37.3643 a3         1 CLA     -0.230700
     21 CMB        81.2974   61.6890   41.0553 a3         1 CLA     -0.180800
     22 CMC        74.5858   59.7018   44.7977 a3         1 CLA     -0.134000
     23 CMD        72.4819   55.1273   38.3072 a3         1 CLA     -0.141100
     24 C1         81.9325   53.8966   34.7612 a2         1 CLA      0.023000
     25 C1A        78.1346   57.3058   37.0380 ac         1 CLA     -0.015100
     26 C1B        79.5037   59.9234   40.2790 cr         1 CLA      0.054700
     27 C1C        75.7360   59.3669   42.4464 cn         1 CLA     -0.005600
     28 C1D        74.2735   56.7689   39.1943 ap         1 CLA     -0.047300
     29 O1A        80.1491   54.8043   32.9683 o2         1 CLA     -0.610800
     30 O1D        78.6410   54.0144   35.4046 o2         1 CLA     -0.558200
     31 C2         82.4913   53.5966   36.1706 c8         1 CLA     -0.325100
     32 C2A        79.4505   57.1750   36.2158 a1         1 CLA      0.098600
     33 C2B        80.0539   60.9224   41.2457 cb         1 CLA      0.088500
     34 C2C        74.6350   59.1499   43.3641 cb         1 CLA      0.053700
     35 C2D        73.7756   55.9215   38.1929 cb         1 CLA      0.058900
     36 O2A        81.7058   55.3711   34.5656 o1         1 CLA     -0.437200
     37 O2D        77.1674   53.3973   37.0826 o1         1 CLA     -0.357600
     38 C3         83.6396   52.9901   36.5100 c5         1 CLA      0.031200
     39 C3A        80.4613   58.0529   36.9632 a1         1 CLA      0.166800
     40 C3B        79.1239   61.0781   42.2412 cb         1 CLA      0.035000
     41 C3C        73.7881   58.2287   42.7667 cb         1 CLA     -0.089900
     42 C3D        74.7636   55.6822   37.3376 cb         1 CLA     -0.035900
     43 C4         83.7347   51.5684   36.8986 a3         1 CLA     -0.053300
     44 C4A        79.5969   58.5362   38.1499 ac         1 CLA      0.001800
     45 C4B        77.9831   60.3280   41.8465 cn         1 CLA     -0.020900
     46 C4C        74.3210   57.9371   41.4345 cr         1 CLA     -0.044400
     47 C4D        75.8047   56.5901   37.6881 c6         1 CLA     -0.046000
     48 C5         84.8247   53.8462   36.7189 a2         1 CLA     -0.070400
     49 C6         84.7376   54.7748   37.9851 a2         1 CLA      0.043900
     50 C7         85.8709   55.7338   38.1386 a2         1 CLA     -0.150000
     51 C8         86.0023   56.4827   39.5608 a1         1 CLA      0.064200
     52 C9         84.9155   57.5581   39.8726 a3         1 CLA     -0.259300
     53 C10        87.4048   57.0074   39.8391 a2         1 CLA     -0.071900
     54 C11        87.7670   57.5767   41.1840 a2         1 CLA      0.014500
     55 C12        87.5870   56.6012   42.3054 a2         1 CLA     -0.112100
     56 C13        88.3014   56.9599   43.5842 a1         1 CLA      0.089200
     57 C14        88.4177   55.6951   44.4541 a3         1 CLA     -0.239100
     58 C15        87.6951   58.1838   44.3494 a2         1 CLA     -0.102200
     59 C16        88.7291   58.8387   45.2709 a2         1 CLA      0.023900
     60 C17        87.9802   59.8295   46.2127 a2         1 CLA     -0.105700
     61 C18        87.0232   59.2160   47.2595 a1         1 CLA      0.206800
     62 C19        87.7168   58.0970   48.1772 a3         1 CLA     -0.280100
     63 C20        86.4611   60.3057   48.1617 a3         1 CLA     -0.280100
     64 NC         75.4367   58.7541   41.2362 nx         1 CLA     -0.309200
     65 MG         76.8595   58.5324   39.6571 mg         1 CLA      0.895000
     66 HMD3       72.5982   54.4525   39.1844 dc         1 CLA      0.064300
     67 HMD2       71.6314   55.8181   38.4642 dc         1 CLA      0.064300
     68 HMD1       72.4149   54.5932   37.4228 dc         1 CLA      0.064300
     69 HMC3       74.3812   60.7803   44.8830 dc         1 CLA      0.052100
     70 HMC2       73.8209   59.1592   45.3785 dc         1 CLA      0.052100
     71 HMC1       75.5370   59.4806   45.1969 dc         1 CLA      0.052100
     72 HMB3       81.1865   62.5975   41.6892 dc         1 CLA      0.063600
     73 HMB2       82.2065   61.0829   41.1732 dc         1 CLA      0.063600
     74 HMB1       81.3355   62.0722   40.0908 dc         1 CLA      0.063600
     75 HMA3       82.4404   58.1170   37.7939 dc         1 CLA      0.058300
     76 HMA2       81.6147   56.5779   38.1137 dc         1 CLA      0.058300
     77 HMA1       82.2994   56.8813   36.5488 dc         1 CLA      0.058300
     78 HED3       77.6816   51.7434   38.2311 dc         1 CLA      0.079300
     79 HED2       77.4306   51.4418   36.4559 dc         1 CLA      0.079300
     80 HED1       78.8943   52.1178   36.9891 dc         1 CLA      0.079300
     81 HBC3       71.9405   55.5165   43.7144 dc         1 CLA      0.016300
     82 HBC2       73.4337   55.5425   42.8879 dc         1 CLA      0.016300
     83 HBC1       73.2377   56.1186   44.5463 dc         1 CLA      0.016300
     84 HBB2       80.1856   62.7344   45.1798 da         1 CLA      0.183000
     85 HBB1       81.3120   61.8541   44.0677 da         1 CLA      0.183000
     86 HBA2       80.1146   57.5218   32.8843 dc         1 CLA      0.029400
     87 HBA1       81.3134   57.6527   34.0714 dc         1 CLA      0.029400
     88 HAC2       72.1018   57.9732   44.2193 dc         1 CLA      0.029300
     89 HAC1       71.7640   57.7463   42.5414 dc         1 CLA      0.029300
     90 HAA2       78.4889   57.0714   34.1761 dc         1 CLA      0.028700
     91 HAA1       79.2818   58.6209   34.4665 dc         1 CLA      0.028700
     92 H203       87.1890   60.8556   48.7641 dc         1 CLA      0.065600
     93 H202       86.0836   61.0452   47.4673 dc         1 CLA      0.065600
     94 H201       85.6507   59.8934   48.7000 dc         1 CLA      0.065600
     95 H193       87.8578   57.1057   47.6520 dc         1 CLA      0.065600
     96 H192       88.6959   58.4391   48.4947 dc         1 CLA      0.065600
     97 H191       87.1502   57.8221   49.0976 dc         1 CLA      0.065600
     98 H172       88.7364   60.3202   46.8971 dc         1 CLA      0.027600
     99 H171       87.4107   60.5158   45.6368 dc         1 CLA      0.027600
    100 H162       89.1990   58.0477   45.8420 dc         1 CLA      0.002900
    101 H161       89.4565   59.3418   44.6386 dc         1 CLA      0.002900
    102 H152       87.4628   58.9772   43.6194 dc         1 CLA      0.029100
    103 H151       86.8205   57.8543   44.8219 dc         1 CLA      0.029100
    104 H143       87.4570   55.3055   44.6236 dc         1 CLA      0.063600
    105 H142       89.0734   55.0114   43.9915 dc         1 CLA      0.063600
    106 H141       88.7173   56.0335   45.4355 dc         1 CLA      0.063600
    107 H122       86.5071   56.4188   42.5339 dc         1 CLA      0.032500
    108 H121       88.0399   55.7096   41.8933 dc         1 CLA      0.032500
    109 H112       88.8334   57.7625   41.1890 dc         1 CLA      0.006600
    110 H111       87.2430   58.4895   41.3919 dc         1 CLA      0.006600
    111 H102       88.1949   56.2074   39.7169 dc         1 CLA      0.024100
    112 H101       87.5035   57.7653   39.0385 dc         1 CLA      0.024100
    113 HHD        72.7243   56.7309   40.5715 da         1 CLA      0.174300
    114 HHC        76.8594   60.6974   43.6149 da         1 CLA      0.136800
    115 HHB        81.1902   59.6460   39.0678 da         1 CLA      0.138300
    116 HBD        76.8279   55.7200   34.8494 dc         1 CLA      0.107700
    117 HAB        78.2215   62.1369   43.9040 da         1 CLA      0.155200
    118 H93        85.1741   58.4243   39.2786 dc         1 CLA      0.069500
    119 H92        83.9128   57.2424   39.6044 dc         1 CLA      0.069500
    120 H91        84.7956   57.8284   40.9537 dc         1 CLA      0.069500
    121 H8         85.8780   55.6584   40.2837 dc         1 CLA      0.029300
    122 H72        86.8447   55.1516   38.0347 dc         1 CLA      0.044400
    123 H71        85.8986   56.5004   37.3634 dc         1 CLA      0.044400
    124 H62        83.8069   55.3213   37.9922 dc         1 CLA      0.015600
    125 H61        84.7028   54.1388   38.8945 dc         1 CLA      0.015600
    126 H52        85.7138   53.2738   36.6327 dc         1 CLA      0.033200
    127 H51        84.9020   54.5375   35.8590 dc         1 CLA      0.033200
    128 H43        84.4916   51.1693   36.2713 dc         1 CLA      0.037000
    129 H42        84.1430   51.5122   37.9261 dc         1 CLA      0.037000
    130 H41        82.9072   50.9514   36.8503 dc         1 CLA      0.037000
    131 H3A        80.7041   58.9406   36.3660 dc         1 CLA      0.041100
    132 H2A        79.7795   56.1314   36.2857 dc         1 CLA      0.083100
    133 H2         82.0454   54.0303   37.0546 da         1 CLA      0.180900
    134 H18        86.1933   58.7560   46.7125 dc         1 CLA     -0.003900
    135 H13        89.2899   57.1892   43.3567 dc         1 CLA      0.019700
    136 H12        81.0679   53.2431   34.7612 dc         1 CLA      0.120400
    137 H11        82.4772   53.3762   33.9815 dc         1 CLA      0.120400
    138 C1         69.8176   61.1673   49.9899 Z1         2 LUT      0.509236
    139 C2         69.5019   62.0506   51.2165 Z2         2 LUT     -0.434695
    140 C3         68.1004   62.6404   51.1330 Z3         2 LUT      0.437453
    141 O3         67.8706   63.4427   52.3117 S1         2 LUT     -0.547129
    142 C4         67.8634   63.4233   49.9232 Z4         2 LUT     -0.468603
    143 C5         68.5138   62.9088   48.6983 Z5         2 LUT      0.279246
    144 C6         69.4095   61.9004   48.7451 Z6         2 LUT     -0.305473
    145 C7         70.1652   61.3545   47.6025 Z7         2 LUT      0.069402
    146 C8         70.8284   62.1447   46.7472 Z8         2 LUT     -0.191631
    147 C9         71.3980   61.6566   45.4646 Z9         2 LUT      0.196698
    148 C10        72.2418   62.5791   44.7934 Y1         2 LUT     -0.208611
    149 C11        72.8910   62.4398   43.4689 Y2         2 LUT      0.030784
    150 C12        73.8993   63.2891   43.0275 Y3         2 LUT     -0.220316
    151 C13        74.8503   63.1098   41.9458 Y4         2 LUT      0.215937
    152 C14        76.0122   63.7669   42.0586 Y5         2 LUT     -0.185793
    153 C15        77.0743   63.8654   41.1202 Y6         2 LUT     -0.057835
    154 C16        68.9200   59.9100   50.0512 Y7         2 LUT     -0.405615
    155 C17        71.2554   60.5975   50.1066 Y7         2 LUT     -0.405615
    156 C18        68.1886   63.7388   47.5384 Y9         2 LUT     -0.369639
    157 C19        70.7750   60.3537   44.8947 W1         2 LUT     -0.333362
    158 C20        74.4288   62.2420   40.7710 W2         2 LUT     -0.323439
    159 C21        88.6728   64.7506   35.7312 Z1         2 LUT      0.406104
    160 C22        89.3392   64.1651   34.4382 Z2         2 LUT     -0.404965
    161 C23        89.6087   65.1467   33.3024 Z3         2 LUT      0.391255
    162 O23        90.2484   64.4488   32.2266 S1         2 LUT     -0.528210
    163 C24        88.3731   66.0268   33.0121 W6         2 LUT     -0.258361
    164 C25        87.3454   66.1374   33.8866 Z5         2 LUT      0.133546
    165 C26        87.2651   65.4059   35.2253 W8         2 LUT     -0.147008
    166 C27        86.5480   66.0622   36.3829 Z7         2 LUT      0.023843
    167 C28        85.2572   65.8074   36.7059 Z8         2 LUT     -0.216987
    168 C29        84.6170   66.2724   37.9235 Z9         2 LUT      0.206524
    169 C30        83.3817   65.8079   38.2558 Y1         2 LUT     -0.215556
    170 C31        82.6365   65.8533   39.5037 Y2         2 LUT      0.025142
    171 C32        81.3942   65.2268   39.5682 Y3         2 LUT     -0.212209
    172 C33        80.5053   65.1465   40.6360 Y4         2 LUT      0.240937
    173 C34        79.2692   64.6470   40.4618 Y5         2 LUT     -0.218862
    174 C35        78.1763   64.5641   41.4484 Y6         2 LUT     -0.023547
    175 C36        89.7151   65.8116   36.2806 Y7         2 LUT     -0.393485
    176 C37        88.5516   63.6566   36.7932 Y7         2 LUT     -0.393485
    177 C38        86.1254   66.9118   33.4953 Y9         2 LUT     -0.387526
    178 C39        85.2887   67.3868   38.7241 W1         2 LUT     -0.322618
    179 C40        81.0848   65.4338   42.0242 W2         2 LUT     -0.358472
    180 H403       80.3910   64.9421   42.7263 R7         2 LUT      0.097720
    181 H402       82.1411   65.2459   42.2419 R7         2 LUT      0.097720
    182 H401       80.9461   66.5183   42.1245 R7         2 LUT      0.097720
    183 H393       85.8517   66.9574   39.5517 R4         2 LUT      0.082505
    184 H392       86.0805   68.0252   38.2796 R4         2 LUT      0.082505
    185 H391       84.5952   68.1516   39.0718 R4         2 LUT      0.082505
    186 H383       86.3511   67.6447   32.7049 R1         2 LUT      0.104030
    187 H382       85.2078   66.2813   33.3972 R1         2 LUT      0.104030
    188 H381       85.9658   67.5371   34.3858 R1         2 LUT      0.104030
    189 H373       89.4894   63.1405   37.0054 T4         2 LUT      0.089537
    190 H372       88.1193   63.9133   37.7814 T4         2 LUT      0.089537
    191 H371       87.8890   62.8467   36.5314 T4         2 LUT      0.089537
    192 H363       89.5337   66.1468   37.3099 T4         2 LUT      0.089537
    193 H362       90.7500   65.4330   36.2246 T4         2 LUT      0.089537
    194 H361       89.7749   66.6436   35.6411 T4         2 LUT      0.089537
    195 H222       90.3290   63.7531   34.7763 U2         2 LUT      0.127376
    196 H221       88.7289   63.3207   34.1986 U2         2 LUT      0.127376
    197 H203       75.0419   61.4179   40.6525 R7         2 LUT      0.087068
    198 H202       73.4501   61.8610   40.8433 R7         2 LUT      0.087068
    199 H201       74.4740   62.8528   39.8416 R7         2 LUT      0.087068
    200 H193       71.2742   59.4630   45.2821 R4         2 LUT      0.089716
    201 H192       69.7206   60.2787   45.1931 R4         2 LUT      0.089716
    202 H191       70.7286   60.3256   43.7754 R4         2 LUT      0.089716
    203 H183       68.0236   63.0577   46.7242 R1         2 LUT      0.094572
    204 H182       67.2355   64.2981   47.6474 R1         2 LUT      0.094572
    205 H181       69.0184   64.4050   47.3021 R1         2 LUT      0.094572
    206 H173       72.0918   61.2726   49.9032 T4         2 LUT      0.093752
    207 H172       71.2849   60.2025   51.1011 T4         2 LUT      0.093752
    208 H171       71.4353   59.7736   49.4253 T4         2 LUT      0.093752
    209 H163       69.2410   59.0548   49.4049 T4         2 LUT      0.093752
    210 H162       68.9510   59.6211   51.0696 T4         2 LUT      0.093752
    211 H161       67.8751   60.1630   49.8798 T4         2 LUT      0.093752
    212 HO3        67.5795   62.8948   53.0593 Q1         2 LUT      0.300121
    213 H8         70.9295   63.2013   46.8267 U7         2 LUT      0.080784
    214 H7         70.2493   60.2508   47.4223 U6         2 LUT      0.042190
    215 H42        66.7461   63.5483   49.6774 U5         2 LUT      0.145166
    216 H41        68.2893   64.4355   50.0753 U5         2 LUT      0.145166
    217 H35        78.2674   65.2188   42.3829 T3         2 LUT      0.077919
    218 H34        78.9932   64.3260   39.4791 T2         2 LUT      0.073626
    219 H32        80.9267   64.8346   38.6635 T1         2 LUT      0.092510
    220 H31        83.0414   66.3428   40.3322 U9         2 LUT      0.070048
    221 H30        82.9865   65.0095   37.6333 U8         2 LUT      0.085442
    222 H3         67.3573   61.8485   51.1430 U3         2 LUT     -0.031596
    223 H28        84.7205   65.0055   36.1188 U7         2 LUT      0.084728
    224 H27        87.1348   66.7036   37.0392 U6         2 LUT      0.087291
    225 H26        86.7275   64.4872   34.8228 Q6         2 LUT      0.075325
    226 H24        88.2829   66.5309   31.9946 Q5         2 LUT      0.094482
    227 H23        90.3997   65.8667   33.5611 U3         2 LUT     -0.024869
    228 H22        69.4388   61.3729   52.0655 U2         2 LUT      0.127376
    229 H21        70.3137   62.8072   51.4425 U2         2 LUT      0.127376
    230 H15        76.9869   63.2954   40.1419 T3         2 LUT      0.093200
    231 H14        76.1081   64.5282   42.9266 T2         2 LUT      0.068865
    232 H12        74.0861   64.0799   43.6512 T1         2 LUT      0.095507
    233 H11        72.7015   61.5378   42.8358 U9         2 LUT      0.068930
    234 H10        72.4731   63.5429   45.2118 U8         2 LUT      0.083911
    235 H1         89.6355   63.9792   31.6590 Q1         2 LUT      0.297311
@<TRIPOS>BOND
    1     6     1 1
    2     7     2 1
    3     8     3 1
    4     9     4 1
    5    11     4 1
    6    12     6 1
    7    13     9 1
    8    16     9 1
    9    25     5 1
   10    25    16 1
   11    26    10 1
   12    26    17 1
   13    27    18 1
   14    28    14 1
   15    28    19 1
   16    29    12 1
   17    30    13 1
   18    31    24 1
   19    32     1 1
   20    32    25 1
   21    33    21 1
   22    33    26 1
   23    34    22 1
   24    34    27 1
   25    35    23 1
   26    35    28 1
   27    36    12 1
   28    36    24 1
   29    37    13 1
   30    37    15 1
   31    38    31 1
   32    39    20 1
   33    39    32 1
   34    40     2 1
   35    40    33 1
   36    41     3 1
   37    41    34 1
   38    42     4 1
   39    42    35 1
   40    43    38 1
   41    44     5 1
   42    44    17 1
   43    44    39 1
   44    45    10 1
   45    45    18 1
   46    45    40 1
   47    46    19 1
   48    46    41 1
   49    47    14 1
   50    47    16 1
   51    47    42 1
   52    48    38 1
   53    49    48 1
   54    50    49 1
   55    51    50 1
   56    52    51 1
   57    53    51 1
   58    54    53 1
   59    55    54 1
   60    56    55 1
   61    57    56 1
   62    58    56 1
   63    59    58 1
   64    60    59 1
   65    61    60 1
   66    62    61 1
   67    63    61 1
   68    64    27 1
   69    64    46 1
   70    65     5 1
   71    65    10 1
   72    65    64 1
   73    65    14 1
   74    66    23 1
   75    67    23 1
   76    68    23 1
   77    69    22 1
   78    70    22 1
   79    71    22 1
   80    72    21 1
   81    73    21 1
   82    74    21 1
   83    75    20 1
   84    76    20 1
   85    77    20 1
   86    78    15 1
   87    79    15 1
   88    80    15 1
   89    81     8 1
   90    82     8 1
   91    83     8 1
   92    84     7 1
   93    85     7 1
   94    86     6 1
   95    87     6 1
   96    88     3 1
   97    89     3 1
   98    90     1 1
   99    91     1 1
  100    92    63 1
  101    93    63 1
  102    94    63 1
  103    95    62 1
  104    96    62 1
  105    97    62 1
  106    98    60 1
  107    99    60 1
  108   100    59 1
  109   101    59 1
  110   102    58 1
  111   103    58 1
  112   104    57 1
  113   105    57 1
  114   106    57 1
  115   107    55 1
  116   108    55 1
  117   109    54 1
  118   110    54 1
  119   111    53 1
  120   112    53 1
  121   113    19 1
  122   114    18 1
  123   115    17 1
  124   116     9 1
  125   117     2 1
  126   118    52 1
  127   119    52 1
  128   120    52 1
  129   121    51 1
  130   122    50 1
  131   123    50 1
  132   124    49 1
  133   125    49 1
  134   126    48 1
  135   127    48 1
  136   128    43 1
  137   129    43 1
  138   130    43 1
  139   131    39 1
  140   132    32 1
  141   133    31 1
  142   134    61 1
  143   135    56 1
  144   136    24 1
  145   137    24 1
  146   139   138 1
  147   140   139 1
  148   141   140 1
  149   142   140 1
  150   143   142 1
  151   144   138 1
  152   144   143 1
  153   145   144 1
  154   146   145 1
  155   147   146 1
  156   148   147 1
  157   149   148 1
  158   150   149 1
  159   151   150 1
  160   152   151 1
  161   153   152 1
  162   154   138 1
  163   155   138 1
  164   156   143 1
  165   157   147 1
  166   158   151 1
  167   160   159 1
  168   161   160 1
  169   162   161 1
  170   163   161 1
  171   164   163 1
  172   165   159 1
  173   165   164 1
  174   166   165 1
  175   167   166 1
  176   168   167 1
  177   169   168 1
  178   170   169 1
  179   171   170 1
  180   172   171 1
  181   173   172 1
  182   174   153 1
  183   174   173 1
  184   175   159 1
  185   176   159 1
  186   177   164 1
  187   178   168 1
  188   179   172 1
  189   180   179 1
  190   181   179 1
  191   182   179 1
  192   183   178 1
  193   184   178 1
  194   185   178 1
  195   186   177 1
  196   187   177 1
  197   188   177 1
  198   189   176 1
  199   190   176 1
  200   191   176 1
  201   192   175 1
  202   193   175 1
  203   194   175 1
  204   195   160 1
  205   196   160 1
  206   197   158 1
  207   198   158 1
  208   199   158 1
  209   200   157 1
  210   201   157 1
  211   202   157 1
  212   203   156 1
  213   204   156 1
  214   205   156 1
  215   206   155 1
  216   207   155 1
  217   208   155 1
  218   209   154 1
  219   210   154 1
  220   211   154 1
  221   212   141 1
  222   213   146 1
  223   214   145 1
  224   215   142 1
  225   216   142 1
  226   217   174 1
  227   218   173 1
  228   219   171 1
  229   220   170 1
  230   221   169 1
  231   222   140 1
  232   223   167 1
  233   224   166 1
  234   225   165 1
  235   226   163 1
  236   227   161 1
  237   228   139 1
  238   229   139 1
  239   230   153 1
  240   231   152 1
  241   232   150 1
  242   233   149 1
  243   234   148 1
  244   235   162 1
  245   65    153 1
  246   65    174 1
@<TRIPOS>SUBSTRUCTURE
      1 CLA               1 ****               0 ****  **** 
      2 LUT             138 ****               0 ****  **** 
