@<TRIPOS>MOLECULE
Cpptraj generated mol2 file.
  235   246     2     0     0
SMALL
USER_CHARGES


@<TRIPOS>ATOM
      1 CAA        78.7157   58.8400   33.9135 a2         1 CLA     -0.055900
      2 CAB        79.2771   62.8545   42.8533 c8         1 CLA     -0.148500
      3 CAC        72.2258   58.3851   42.8964 a2         1 CLA     -0.012600
      4 CAD        74.4250   56.5139   35.3668 ck         1 CLA      0.398800
      5 NA         77.7474   59.3715   37.4358 ns         1 CLA     -0.225500
      6 CBA        79.8157   58.6480   32.9758 a2         1 CLA     -0.135000
      7 CBB        79.0949   62.3810   44.1222 c0         1 CLA     -0.395200
      8 CBC        72.3936   56.9062   42.6978 a3         1 CLA     -0.037700
      9 CBD        75.9284   56.9068   34.9960 a1         1 CLA     -0.053900
     10 NB         77.8430   60.7556   40.0682 nm         1 CLA     -0.295700
     11 OBD        73.6871   55.8361   34.6783 o2         1 CLA     -0.494600
     12 CGA        80.0258   57.1255   32.6008 c4         1 CLA      0.827000
     13 CGD        76.7910   55.7165   34.6196 c4         1 CLA      0.655300
     14 ND         75.0210   58.3557   38.3513 nm         1 CLA     -0.291600
     15 CED        77.7320   53.6926   35.4274 a3         1 CLA      0.005400
     16 CHA        76.3783   57.7548   36.2237 cs         1 CLA     -0.123800
     17 CHB        79.5667   60.5758   38.4118 aa         1 CLA     -0.291900
     18 CHC        76.5906   61.0125   42.2216 aa         1 CLA     -0.090400
     19 CHD        73.2027   58.3463   39.9219 aa         1 CLA     -0.052000
     20 CMA        81.1410   58.3664   36.5735 a3         1 CLA     -0.230700
     21 CMB        81.1422   62.6398   40.2610 a3         1 CLA     -0.180800
     22 CMC        74.4387   60.2445   44.4350 a3         1 CLA     -0.134000
     23 CMD        71.6914   56.8197   37.6669 a3         1 CLA     -0.141100
     24 C1         81.0664   55.1602   33.5569 a2         1 CLA      0.023000
     25 C1A        77.5813   58.4881   36.3651 ac         1 CLA     -0.015100
     26 C1B        79.0720   61.0568   39.6034 cr         1 CLA      0.054700
     27 C1C        75.4110   60.2688   42.0123 cn         1 CLA     -0.005600
     28 C1D        73.7073   57.9816   38.6524 ap         1 CLA     -0.047300
     29 O1A        79.5306   56.5010   31.6654 o2         1 CLA     -0.610800
     30 O1D        77.4128   55.5755   33.5713 o2         1 CLA     -0.558200
     31 C2         81.5005   54.7922   34.8680 c8         1 CLA     -0.325100
     32 C2A        78.8503   58.4248   35.3722 a1         1 CLA      0.098600
     33 C2B        79.7944   62.0287   40.4698 cb         1 CLA      0.088500
     34 C2C        74.3816   59.9184   42.9920 cb         1 CLA      0.053700
     35 C2D        73.1091   57.2742   37.5692 cb         1 CLA      0.058900
     36 O2A        80.9546   56.6235   33.5139 o1         1 CLA     -0.437200
     37 O2D        76.9106   54.8929   35.6800 o1         1 CLA     -0.357600
     38 C3         82.2287   53.7749   35.3527 c5         1 CLA      0.031200
     39 C3A        79.8649   59.1642   36.2296 a1         1 CLA      0.166800
     40 C3B        78.8936   62.1640   41.5879 cb         1 CLA      0.035000
     41 C3C        73.3853   59.1539   42.3276 cb         1 CLA     -0.089900
     42 C3D        74.1264   57.0640   36.6801 cb         1 CLA     -0.035900
     43 C4         81.6827   52.5305   35.8798 a3         1 CLA     -0.053300
     44 C4A        79.0365   59.7337   37.4394 ac         1 CLA      0.001800
     45 C4B        77.7108   61.2370   41.3766 cn         1 CLA     -0.020900
     46 C4C        73.9025   58.9541   40.9891 cr         1 CLA     -0.044400
     47 C4D        75.2634   57.7525   37.0995 c6         1 CLA     -0.046000
     48 C5         83.7295   54.0139   35.3178 a2         1 CLA     -0.070400
     49 C6         84.3924   55.1293   36.0688 a2         1 CLA      0.043900
     50 C7         84.2890   55.0767   37.5680 a2         1 CLA     -0.150000
     51 C8         85.0020   56.2084   38.3389 a1         1 CLA      0.064200
     52 C9         86.5265   56.3706   38.0332 a3         1 CLA     -0.259300
     53 C10        84.7299   56.1463   39.8757 a2         1 CLA     -0.071900
     54 C11        83.2511   56.4510   40.3486 a2         1 CLA      0.014500
     55 C12        83.2334   57.4788   41.4903 a2         1 CLA     -0.112100
     56 C13        81.8217   58.0337   41.8010 a1         1 CLA      0.089200
     57 C14        81.1306   58.7408   40.6214 a3         1 CLA     -0.239100
     58 C15        81.6283   58.8801   43.1505 a2         1 CLA     -0.102200
     59 C16        82.2966   60.2133   43.1504 a2         1 CLA      0.023900
     60 C17        82.4393   60.7038   44.5947 a2         1 CLA     -0.105700
     61 C18        83.4999   61.8315   44.7258 a1         1 CLA      0.206800
     62 C19        82.9930   63.1530   44.1337 a3         1 CLA     -0.280100
     63 C20        83.6746   62.1012   46.2781 a3         1 CLA     -0.280100
     64 NC         75.1285   59.6046   40.8980 nx         1 CLA     -0.309200
     65 MG         76.3432   59.6313   39.1143 mg         1 CLA      0.895000
     66 HMD3       71.4716   56.5487   38.7929 dc         1 CLA      0.064300
     67 HMD2       70.9180   57.5772   37.4410 dc         1 CLA      0.064300
     68 HMD1       71.5821   56.0293   36.9313 dc         1 CLA      0.064300
     69 HMC3       74.2578   59.3084   44.9924 dc         1 CLA      0.052100
     70 HMC2       75.4615   60.5607   44.6881 dc         1 CLA      0.052100
     71 HMC1       73.7882   61.0310   44.8246 dc         1 CLA      0.052100
     72 HMB3       81.9676   62.0599   40.4856 dc         1 CLA      0.063600
     73 HMB2       81.0844   62.9382   39.2015 dc         1 CLA      0.063600
     74 HMB1       81.0750   63.4351   40.9322 dc         1 CLA      0.063600
     75 HMA3       80.6496   57.5755   37.2070 dc         1 CLA      0.058300
     76 HMA2       81.6297   57.9120   35.7555 dc         1 CLA      0.058300
     77 HMA1       81.7496   59.0046   37.2408 dc         1 CLA      0.058300
     78 HED3       77.6982   52.8909   36.2400 dc         1 CLA      0.079300
     79 HED2       77.4396   53.0987   34.5164 dc         1 CLA      0.079300
     80 HED1       78.7190   54.0259   35.1717 dc         1 CLA      0.079300
     81 HBC3       71.8441   56.4160   43.4845 dc         1 CLA      0.016300
     82 HBC2       72.0790   56.5572   41.7298 dc         1 CLA      0.016300
     83 HBC1       73.3458   56.5793   42.8731 dc         1 CLA      0.016300
     84 HBB2       79.4801   62.8179   45.0414 da         1 CLA      0.183000
     85 HBB1       78.6912   61.3586   44.3063 da         1 CLA      0.183000
     86 HBA2       79.6949   59.3235   32.1098 dc         1 CLA      0.029400
     87 HBA1       80.7773   58.8588   33.4562 dc         1 CLA      0.029400
     88 HAC2       72.1613   58.6132   43.9912 dc         1 CLA      0.029300
     89 HAC1       71.2323   58.6289   42.4016 dc         1 CLA      0.029300
     90 HAA2       77.8713   58.3598   33.3996 dc         1 CLA      0.028700
     91 HAA1       78.2520   59.8303   33.9608 dc         1 CLA      0.028700
     92 H203       84.3698   61.4234   46.7762 dc         1 CLA      0.065600
     93 H202       84.1375   63.1358   46.4926 dc         1 CLA      0.065600
     94 H201       82.7009   62.0222   46.6817 dc         1 CLA      0.065600
     95 H193       82.1338   63.5413   44.6575 dc         1 CLA      0.065600
     96 H192       83.8213   63.8934   44.1431 dc         1 CLA      0.065600
     97 H191       82.6213   62.9380   43.1536 dc         1 CLA      0.065600
     98 H172       81.4528   60.9999   44.8073 dc         1 CLA      0.027600
     99 H171       82.8682   59.8865   45.2490 dc         1 CLA      0.027600
    100 H162       83.3099   60.0807   42.8355 dc         1 CLA      0.002900
    101 H161       81.7860   61.0040   42.5668 dc         1 CLA      0.002900
    102 H152       80.5040   59.1261   43.2140 dc         1 CLA      0.029100
    103 H151       82.0117   58.2450   43.9102 dc         1 CLA      0.029100
    104 H143       81.6417   59.6863   40.2998 dc         1 CLA      0.063600
    105 H142       81.0210   58.1001   39.7858 dc         1 CLA      0.063600
    106 H141       80.0903   58.9725   40.9093 dc         1 CLA      0.063600
    107 H122       83.6852   57.0624   42.4084 dc         1 CLA      0.032500
    108 H121       83.7771   58.3606   41.2405 dc         1 CLA      0.032500
    109 H112       82.7598   56.9089   39.5084 dc         1 CLA      0.006600
    110 H111       82.6882   55.5997   40.6707 dc         1 CLA      0.006600
    111 H102       84.9274   55.1299   40.2237 dc         1 CLA      0.024100
    112 H101       85.3122   56.8032   40.4748 dc         1 CLA      0.024100
    113 HHD        72.1506   58.1147   40.1242 da         1 CLA      0.174300
    114 HHC        76.6458   61.3474   43.2701 da         1 CLA      0.136800
    115 HHB        80.6133   60.9127   38.1730 da         1 CLA      0.138300
    116 HBD        75.6813   57.3642   34.0554 dc         1 CLA      0.107700
    117 HAB        79.8250   63.7598   42.7753 da         1 CLA      0.155200
    118 H93        86.9963   57.1935   38.5726 dc         1 CLA      0.069500
    119 H92        86.9391   55.3852   38.2471 dc         1 CLA      0.069500
    120 H91        86.7140   56.5364   36.9505 dc         1 CLA      0.069500
    121 H8         84.5104   57.1222   38.0820 dc         1 CLA      0.029300
    122 H72        83.2336   55.1855   37.8201 dc         1 CLA      0.044400
    123 H71        84.6116   54.0383   37.8731 dc         1 CLA      0.044400
    124 H62        85.4517   55.1408   35.7838 dc         1 CLA      0.015600
    125 H61        83.9528   56.0933   35.7827 dc         1 CLA      0.015600
    126 H52        84.2072   53.0658   35.6147 dc         1 CLA      0.033200
    127 H51        83.9838   54.3412   34.2921 dc         1 CLA      0.033200
    128 H43        82.0064   51.6699   35.3381 dc         1 CLA      0.037000
    129 H42        81.9134   52.3808   36.8752 dc         1 CLA      0.037000
    130 H41        80.6486   52.5657   35.7948 dc         1 CLA      0.037000
    131 H3A        80.2234   60.0271   35.6639 dc         1 CLA      0.041100
    132 H2A        79.1493   57.3355   35.2460 dc         1 CLA      0.083100
    133 H2         81.1751   55.4403   35.6765 da         1 CLA      0.180900
    134 H18        84.3408   61.4147   44.2767 dc         1 CLA     -0.003900
    135 H13        81.2477   57.1249   42.0205 dc         1 CLA      0.019700
    136 H12        80.0586   54.7997   33.2982 dc         1 CLA      0.120400
    137 H11        81.9389   54.9380   32.8278 dc         1 CLA      0.120400
    138 C1         68.5054   61.1578   49.7445 Z1         2 LUT      0.509236
    139 C2         67.0915   61.1539   50.4248 Z2         2 LUT     -0.434695
    140 C3         66.3037   62.4293   50.6324 Z3         2 LUT      0.437453
    141 O3         66.1316   62.6232   52.0027 S1         2 LUT     -0.547129
    142 C4         67.1037   63.5566   50.0600 Z4         2 LUT     -0.468603
    143 C5         67.7257   63.3956   48.7095 Z5         2 LUT      0.279246
    144 C6         68.5340   62.2981   48.5709 Z6         2 LUT     -0.305473
    145 C7         68.8944   61.8754   47.2254 Z7         2 LUT      0.069402
    146 C8         69.5348   62.6078   46.3087 Z8         2 LUT     -0.191631
    147 C9         70.2490   62.2080   45.1508 Z9         2 LUT      0.196698
    148 C10        71.0890   63.1247   44.5256 Y1         2 LUT     -0.208611
    149 C11        71.8559   63.0276   43.3455 Y2         2 LUT      0.030784
    150 C12        72.8048   63.9139   42.9008 Y3         2 LUT     -0.220316
    151 C13        73.7928   63.7687   41.9231 Y4         2 LUT      0.215937
    152 C14        74.9364   64.5147   41.9368 Y5         2 LUT     -0.185793
    153 C15        76.0339   64.4625   40.9936 Y6         2 LUT     -0.057835
    154 C16        68.8264   59.6893   49.4195 Y7         2 LUT     -0.405615
    155 C17        69.3749   61.5094   51.0077 Y7         2 LUT     -0.405615
    156 C18        67.1808   64.3575   47.6889 Y9         2 LUT     -0.369639
    157 C19        70.0014   60.8038   44.6586 W1         2 LUT     -0.333362
    158 C20        73.2993   63.0535   40.6112 W2         2 LUT     -0.323439
    159 C21        87.7639   66.1134   35.3685 Z1         2 LUT      0.406104
    160 C22        88.3816   65.4201   34.1595 Z2         2 LUT     -0.404965
    161 C23        88.4734   66.2476   32.9064 Z3         2 LUT      0.391255
    162 O23        89.0981   65.3485   31.9816 S1         2 LUT     -0.528210
    163 C24        87.0846   66.9328   32.6779 W6         2 LUT     -0.258361
    164 C25        86.0763   67.0386   33.6161 Z5         2 LUT      0.133546
    165 C26        86.2598   66.5005   34.9728 W8         2 LUT     -0.147008
    166 C27        85.5470   67.1369   36.1539 Z7         2 LUT      0.023843
    167 C28        84.6425   66.5332   36.9335 Z8         2 LUT     -0.216987
    168 C29        83.8590   67.1021   38.0147 Z9         2 LUT      0.206524
    169 C30        82.6857   66.5343   38.2601 Y1         2 LUT     -0.215556
    170 C31        81.7206   66.6924   39.3199 Y2         2 LUT      0.025142
    171 C32        80.5299   66.0143   39.4295 Y3         2 LUT     -0.212209
    172 C33        79.5338   65.9436   40.4885 Y4         2 LUT      0.240937
    173 C34        78.3443   65.3099   40.3219 Y5         2 LUT     -0.218862
    174 C35        77.2304   65.2045   41.1018 Y6         2 LUT     -0.023547
    175 C36        88.6718   67.2706   35.8702 Y7         2 LUT     -0.393485
    176 C37        87.9023   65.0394   36.5009 Y7         2 LUT     -0.393485
    177 C38        84.6956   67.5599   33.2255 Y9         2 LUT     -0.387526
    178 C39        84.4256   68.2712   38.7626 W1         2 LUT     -0.322618
    179 C40        80.0553   66.6697   41.7199 W2         2 LUT     -0.358472
    180 H403       81.1119   66.4372   41.8828 R7         2 LUT      0.097720
    181 H402       79.9198   67.7380   41.6275 R7         2 LUT      0.097720
    182 H401       79.5711   66.3746   42.6370 R7         2 LUT      0.097720
    183 H393       84.7133   69.0318   38.0364 R4         2 LUT      0.082505
    184 H392       83.7235   68.6246   39.5033 R4         2 LUT      0.082505
    185 H391       85.3341   67.9885   39.1799 R4         2 LUT      0.082505
    186 H383       84.0238   66.6950   33.1822 R1         2 LUT      0.104030
    187 H382       84.2982   68.3830   33.8358 R1         2 LUT      0.104030
    188 H381       84.6876   67.9697   32.1924 R1         2 LUT      0.104030
    189 H373       87.6498   65.3112   37.5372 T4         2 LUT      0.089537
    190 H372       87.2941   64.1719   36.2628 T4         2 LUT      0.089537
    191 H371       89.0044   64.7225   36.4558 T4         2 LUT      0.089537
    192 H363       88.3321   67.9449   36.6797 T4         2 LUT      0.089537
    193 H362       89.6590   66.7849   36.2203 T4         2 LUT      0.089537
    194 H361       88.8134   67.9796   35.0987 T4         2 LUT      0.089537
    195 H222       89.4553   65.0903   34.2806 U2         2 LUT      0.127376
    196 H221       87.9146   64.5035   33.8956 U2         2 LUT      0.127376
    197 H203       74.0668   62.7207   39.9437 R7         2 LUT      0.087068
    198 H202       72.7514   62.1083   40.7257 R7         2 LUT      0.087068
    199 H201       72.6276   63.7013   40.1471 R7         2 LUT      0.087068
    200 H193       70.5913   60.0599   45.2098 R4         2 LUT      0.089716
    201 H192       68.9372   60.6423   44.5901 R4         2 LUT      0.089716
    202 H191       70.3313   60.6729   43.5972 R4         2 LUT      0.089716
    203 H183       66.1273   64.6977   47.8282 R1         2 LUT      0.094572
    204 H182       67.8084   65.2398   47.4484 R1         2 LUT      0.094572
    205 H181       67.1987   63.8493   46.6821 R1         2 LUT      0.094572
    206 H173       69.8763   60.6986   51.4879 T4         2 LUT      0.093752
    207 H172       70.1293   62.0879   50.5832 T4         2 LUT      0.093752
    208 H171       68.9382   62.0650   51.7720 T4         2 LUT      0.093752
    209 H163       69.8479   59.4420   49.1027 T4         2 LUT      0.093752
    210 H162       68.6428   59.0484   50.3216 T4         2 LUT      0.093752
    211 H161       68.1584   59.2118   48.6264 T4         2 LUT      0.093752
    212 HO3        65.4016   62.1083   52.3960 Q1         2 LUT      0.300121
    213 H8         69.6730   63.6390   46.5720 U7         2 LUT      0.080784
    214 H7         68.9501   60.8068   47.0332 U6         2 LUT      0.042190
    215 H42        66.4857   64.4283   50.1932 U5         2 LUT      0.145166
    216 H41        67.7992   64.0319   50.7388 U5         2 LUT      0.145166
    217 H35        77.2107   65.7620   42.0762 T3         2 LUT      0.077919
    218 H34        78.1804   64.7978   39.3189 T2         2 LUT      0.073626
    219 H32        80.2981   65.3375   38.6021 T1         2 LUT      0.092510
    220 H31        82.2124   67.3492   40.1010 U9         2 LUT      0.070048
    221 H30        82.3987   65.6429   37.6125 U8         2 LUT      0.085442
    222 H3         65.2814   62.4242   50.0843 U3         2 LUT     -0.031596
    223 H28        84.2237   65.5911   36.5239 U7         2 LUT      0.084728
    224 H27        85.9094   68.1592   36.3090 U6         2 LUT      0.087291
    225 H26        85.7328   65.4974   34.8082 Q6         2 LUT      0.075325
    226 H24        86.8649   67.3603   31.6598 Q5         2 LUT      0.094482
    227 H23        89.2758   66.9817   33.0425 U3         2 LUT     -0.024869
    228 H22        66.4260   60.6011   49.7775 U2         2 LUT      0.127376
    229 H21        67.0869   60.5201   51.3235 U2         2 LUT      0.127376
    230 H15        75.9989   63.7207   40.1957 T3         2 LUT      0.093200
    231 H14        75.1189   65.2310   42.7175 T2         2 LUT      0.068865
    232 H12        73.0831   64.7841   43.5612 T1         2 LUT      0.095507
    233 H11        71.7755   62.1223   42.7827 U9         2 LUT      0.068930
    234 H10        71.3306   64.0178   45.1886 U8         2 LUT      0.083911
    235 H1         89.0685   65.6316   31.0603 Q1         2 LUT      0.297311
@<TRIPOS>BOND
    1     6     1 1
    2     7     2 1
    3     8     3 1
    4     9     4 1
    5    11     4 1
    6    12     6 1
    7    13     9 1
    8    16     9 1
    9    25     5 1
   10    25    16 1
   11    26    10 1
   12    26    17 1
   13    27    18 1
   14    28    14 1
   15    28    19 1
   16    29    12 1
   17    30    13 1
   18    31    24 1
   19    32     1 1
   20    32    25 1
   21    33    21 1
   22    33    26 1
   23    34    22 1
   24    34    27 1
   25    35    23 1
   26    35    28 1
   27    36    12 1
   28    36    24 1
   29    37    13 1
   30    37    15 1
   31    38    31 1
   32    39    20 1
   33    39    32 1
   34    40     2 1
   35    40    33 1
   36    41     3 1
   37    41    34 1
   38    42     4 1
   39    42    35 1
   40    43    38 1
   41    44     5 1
   42    44    17 1
   43    44    39 1
   44    45    10 1
   45    45    18 1
   46    45    40 1
   47    46    19 1
   48    46    41 1
   49    47    14 1
   50    47    16 1
   51    47    42 1
   52    48    38 1
   53    49    48 1
   54    50    49 1
   55    51    50 1
   56    52    51 1
   57    53    51 1
   58    54    53 1
   59    55    54 1
   60    56    55 1
   61    57    56 1
   62    58    56 1
   63    59    58 1
   64    60    59 1
   65    61    60 1
   66    62    61 1
   67    63    61 1
   68    64    27 1
   69    64    46 1
   70    65     5 1
   71    65    10 1
   72    65    64 1
   73    65    14 1
   74    66    23 1
   75    67    23 1
   76    68    23 1
   77    69    22 1
   78    70    22 1
   79    71    22 1
   80    72    21 1
   81    73    21 1
   82    74    21 1
   83    75    20 1
   84    76    20 1
   85    77    20 1
   86    78    15 1
   87    79    15 1
   88    80    15 1
   89    81     8 1
   90    82     8 1
   91    83     8 1
   92    84     7 1
   93    85     7 1
   94    86     6 1
   95    87     6 1
   96    88     3 1
   97    89     3 1
   98    90     1 1
   99    91     1 1
  100    92    63 1
  101    93    63 1
  102    94    63 1
  103    95    62 1
  104    96    62 1
  105    97    62 1
  106    98    60 1
  107    99    60 1
  108   100    59 1
  109   101    59 1
  110   102    58 1
  111   103    58 1
  112   104    57 1
  113   105    57 1
  114   106    57 1
  115   107    55 1
  116   108    55 1
  117   109    54 1
  118   110    54 1
  119   111    53 1
  120   112    53 1
  121   113    19 1
  122   114    18 1
  123   115    17 1
  124   116     9 1
  125   117     2 1
  126   118    52 1
  127   119    52 1
  128   120    52 1
  129   121    51 1
  130   122    50 1
  131   123    50 1
  132   124    49 1
  133   125    49 1
  134   126    48 1
  135   127    48 1
  136   128    43 1
  137   129    43 1
  138   130    43 1
  139   131    39 1
  140   132    32 1
  141   133    31 1
  142   134    61 1
  143   135    56 1
  144   136    24 1
  145   137    24 1
  146   139   138 1
  147   140   139 1
  148   141   140 1
  149   142   140 1
  150   143   142 1
  151   144   138 1
  152   144   143 1
  153   145   144 1
  154   146   145 1
  155   147   146 1
  156   148   147 1
  157   149   148 1
  158   150   149 1
  159   151   150 1
  160   152   151 1
  161   153   152 1
  162   154   138 1
  163   155   138 1
  164   156   143 1
  165   157   147 1
  166   158   151 1
  167   160   159 1
  168   161   160 1
  169   162   161 1
  170   163   161 1
  171   164   163 1
  172   165   159 1
  173   165   164 1
  174   166   165 1
  175   167   166 1
  176   168   167 1
  177   169   168 1
  178   170   169 1
  179   171   170 1
  180   172   171 1
  181   173   172 1
  182   174   153 1
  183   174   173 1
  184   175   159 1
  185   176   159 1
  186   177   164 1
  187   178   168 1
  188   179   172 1
  189   180   179 1
  190   181   179 1
  191   182   179 1
  192   183   178 1
  193   184   178 1
  194   185   178 1
  195   186   177 1
  196   187   177 1
  197   188   177 1
  198   189   176 1
  199   190   176 1
  200   191   176 1
  201   192   175 1
  202   193   175 1
  203   194   175 1
  204   195   160 1
  205   196   160 1
  206   197   158 1
  207   198   158 1
  208   199   158 1
  209   200   157 1
  210   201   157 1
  211   202   157 1
  212   203   156 1
  213   204   156 1
  214   205   156 1
  215   206   155 1
  216   207   155 1
  217   208   155 1
  218   209   154 1
  219   210   154 1
  220   211   154 1
  221   212   141 1
  222   213   146 1
  223   214   145 1
  224   215   142 1
  225   216   142 1
  226   217   174 1
  227   218   173 1
  228   219   171 1
  229   220   170 1
  230   221   169 1
  231   222   140 1
  232   223   167 1
  233   224   166 1
  234   225   165 1
  235   226   163 1
  236   227   161 1
  237   228   139 1
  238   229   139 1
  239   230   153 1
  240   231   152 1
  241   232   150 1
  242   233   149 1
  243   234   148 1
  244   235   162 1
  245   65    153 1
  246   65    174 1
@<TRIPOS>SUBSTRUCTURE
      1 CLA               1 ****               0 ****  **** 
      2 LUT             138 ****               0 ****  **** 
