@<TRIPOS>MOLECULE
Cpptraj generated mol2 file.
  235   246     2     0     0
SMALL
USER_CHARGES


@<TRIPOS>ATOM
      1 CAA        77.5582   58.4532   34.6553 a2         1 CLA     -0.055900
      2 CAB        77.3090   62.0692   43.7259 c8         1 CLA     -0.148500
      3 CAC        70.8614   57.5399   43.5250 a2         1 CLA     -0.012600
      4 CAD        73.6067   55.5874   35.9217 ck         1 CLA      0.398800
      5 NA         76.4517   58.8542   38.0573 ns         1 CLA     -0.225500
      6 CBA        78.7884   58.1925   33.8852 a2         1 CLA     -0.135000
      7 CBB        78.0502   63.1326   44.1061 c0         1 CLA     -0.395200
      8 CBC        70.7113   56.0064   43.3161 a3         1 CLA     -0.037700
      9 CBD        75.0677   56.1519   35.6467 a1         1 CLA     -0.053900
     10 NB         76.2870   60.3028   40.6586 nm         1 CLA     -0.295700
     11 OBD        73.0183   54.8263   35.1341 o2         1 CLA     -0.494600
     12 CGA        79.2278   56.8156   33.5373 c4         1 CLA      0.827000
     13 CGD        75.9757   54.9823   35.8189 c4         1 CLA      0.655300
     14 ND         73.7335   57.6770   38.7238 nm         1 CLA     -0.291600
     15 CED        77.0261   53.4553   37.3713 a3         1 CLA      0.005400
     16 CHA        75.2643   57.2135   36.7516 cs         1 CLA     -0.123800
     17 CHB        78.2179   60.3146   39.1594 aa         1 CLA     -0.291900
     18 CHC        74.8537   60.5375   42.6108 aa         1 CLA     -0.090400
     19 CHD        72.0399   57.2735   40.4033 aa         1 CLA     -0.052000
     20 CMA        80.0711   58.5425   37.4493 a3         1 CLA     -0.230700
     21 CMB        79.4852   62.0839   41.3023 a3         1 CLA     -0.180800
     22 CMC        72.6026   59.8088   44.7507 a3         1 CLA     -0.134000
     23 CMD        70.8987   55.1957   38.2085 a3         1 CLA     -0.141100
     24 C1         80.4285   54.9488   34.3591 a2         1 CLA      0.023000
     25 C1A        76.4398   58.0135   37.0112 ac         1 CLA     -0.015100
     26 C1B        77.5503   60.6612   40.3599 cr         1 CLA      0.054700
     27 C1C        73.8284   59.6371   42.3674 cn         1 CLA     -0.005600
     28 C1D        72.5381   57.0694   39.0964 ap         1 CLA     -0.047300
     29 O1A        79.1914   56.2770   32.4417 o2         1 CLA     -0.610800
     30 O1D        76.6468   54.4551   34.9314 o2         1 CLA     -0.558200
     31 C2         81.0639   54.7459   35.7098 c8         1 CLA     -0.325100
     32 C2A        77.7278   58.0552   36.1753 a1         1 CLA      0.098600
     33 C2B        78.1026   61.5446   41.3471 cb         1 CLA      0.088500
     34 C2C        72.7471   59.2847   43.3342 cb         1 CLA      0.053700
     35 C2D        72.1104   56.1227   38.0924 cb         1 CLA      0.058900
     36 O2A        79.8279   56.2496   34.5971 o1         1 CLA     -0.437200
     37 O2D        76.0183   54.4943   37.1239 o1         1 CLA     -0.357600
     38 C3         81.7091   53.5570   36.0969 c5         1 CLA      0.031200
     39 C3A        78.6854   59.0694   36.9650 a1         1 CLA      0.166800
     40 C3B        77.1780   61.5339   42.3674 cb         1 CLA      0.035000
     41 C3C        72.0227   58.2012   42.7384 cb         1 CLA     -0.089900
     42 C3D        73.1742   56.1673   37.1696 cb         1 CLA     -0.035900
     43 C4         81.0648   52.4177   36.8592 a3         1 CLA     -0.053300
     44 C4A        77.7629   59.4626   38.1561 ac         1 CLA      0.001800
     45 C4B        76.0086   60.7962   41.9092 cn         1 CLA     -0.020900
     46 C4C        72.5485   58.0922   41.4151 cr         1 CLA     -0.044400
     47 C4D        74.0892   57.1102   37.5484 c6         1 CLA     -0.046000
     48 C5         83.2217   53.3799   35.7873 a2         1 CLA     -0.070400
     49 C6         84.1380   54.5715   36.1739 a2         1 CLA      0.043900
     50 C7         84.3188   54.8285   37.6597 a2         1 CLA     -0.150000
     51 C8         85.2495   56.0652   37.9673 a1         1 CLA      0.064200
     52 C9         86.8296   55.9291   37.7310 a3         1 CLA     -0.259300
     53 C10        85.1534   56.6718   39.3841 a2         1 CLA     -0.071900
     54 C11        83.8317   57.0597   39.9116 a2         1 CLA      0.014500
     55 C12        83.9417   58.0642   41.1031 a2         1 CLA     -0.112100
     56 C13        84.5192   57.5105   42.4555 a1         1 CLA      0.089200
     57 C14        83.7291   56.3008   43.1356 a3         1 CLA     -0.239100
     58 C15        84.7617   58.6699   43.5217 a2         1 CLA     -0.102200
     59 C16        83.5658   59.5959   43.8976 a2         1 CLA      0.023900
     60 C17        83.6491   60.0849   45.3040 a2         1 CLA     -0.105700
     61 C18        82.3572   60.7489   45.8636 a1         1 CLA      0.206800
     62 C19        82.4316   60.9639   47.3981 a3         1 CLA     -0.280100
     63 C20        82.0803   62.1232   45.1954 a3         1 CLA     -0.280100
     64 NC         73.6933   58.9587   41.2746 nx         1 CLA     -0.309200
     65 MG         74.9336   59.0676   39.5805 mg         1 CLA      0.895000
     66 HMD3       71.1398   54.3742   37.5518 dc         1 CLA      0.064300
     67 HMD2       70.7638   54.6822   39.1774 dc         1 CLA      0.064300
     68 HMD1       69.9585   55.6809   38.0504 dc         1 CLA      0.064300
     69 HMC3       72.7616   60.8733   44.8187 dc         1 CLA      0.052100
     70 HMC2       71.6486   59.6845   45.2278 dc         1 CLA      0.052100
     71 HMC1       73.3946   59.3781   45.2963 dc         1 CLA      0.052100
     72 HMB3       80.0955   61.3477   40.8292 dc         1 CLA      0.063600
     73 HMB2       79.4202   63.0164   40.7705 dc         1 CLA      0.063600
     74 HMB1       79.9992   62.2533   42.2384 dc         1 CLA      0.063600
     75 HMA3       80.6930   58.1712   36.6410 dc         1 CLA      0.058300
     76 HMA2       80.7190   59.2399   38.0592 dc         1 CLA      0.058300
     77 HMA1       79.8598   57.6067   38.0244 dc         1 CLA      0.058300
     78 HED3       77.1298   53.1237   38.4098 dc         1 CLA      0.079300
     79 HED2       76.6866   52.5645   36.8016 dc         1 CLA      0.079300
     80 HED1       77.9707   53.9309   37.0695 dc         1 CLA      0.079300
     81 HBC3       70.6070   55.7331   42.3100 dc         1 CLA      0.016300
     82 HBC2       71.6507   55.4791   43.6624 dc         1 CLA      0.016300
     83 HBC1       69.9042   55.6090   43.8801 dc         1 CLA      0.016300
     84 HBB2       78.0557   63.3910   45.1392 da         1 CLA      0.183000
     85 HBB1       78.5602   63.7380   43.3688 da         1 CLA      0.183000
     86 HBA2       78.6648   58.7672   32.9879 dc         1 CLA      0.029400
     87 HBA1       79.6150   58.6499   34.4288 dc         1 CLA      0.029400
     88 HAC2       70.9258   57.6711   44.5871 dc         1 CLA      0.029300
     89 HAC1       69.8942   58.0115   43.2883 dc         1 CLA      0.029300
     90 HAA2       76.8355   57.8657   34.1990 dc         1 CLA      0.028700
     91 HAA1       77.1894   59.4920   34.6356 dc         1 CLA      0.028700
     92 H203       81.1461   62.5456   45.5089 dc         1 CLA      0.065600
     93 H202       82.8283   62.9782   45.3757 dc         1 CLA      0.065600
     94 H201       82.0040   61.9646   44.1466 dc         1 CLA      0.065600
     95 H193       81.6099   61.6680   47.7225 dc         1 CLA      0.065600
     96 H192       82.3539   59.9508   47.9073 dc         1 CLA      0.065600
     97 H191       83.4049   61.3349   47.5629 dc         1 CLA      0.065600
     98 H172       83.7775   59.1713   45.8897 dc         1 CLA      0.027600
     99 H171       84.4753   60.8669   45.3181 dc         1 CLA      0.027600
    100 H162       83.4484   60.3588   43.1521 dc         1 CLA      0.002900
    101 H161       82.6968   58.9988   43.7918 dc         1 CLA      0.002900
    102 H152       85.1684   58.1724   44.4469 dc         1 CLA      0.029100
    103 H151       85.5577   59.3637   43.1830 dc         1 CLA      0.029100
    104 H143       82.7956   56.7149   43.4405 dc         1 CLA      0.063600
    105 H142       83.5537   55.4884   42.4399 dc         1 CLA      0.063600
    106 H141       84.3926   56.0379   43.9832 dc         1 CLA      0.063600
    107 H122       84.5167   58.9515   40.7316 dc         1 CLA      0.032500
    108 H121       82.9116   58.4091   41.3764 dc         1 CLA      0.032500
    109 H112       83.2605   57.5009   39.0712 dc         1 CLA      0.006600
    110 H111       83.2001   56.2687   40.2787 dc         1 CLA      0.006600
    111 H102       85.6041   55.9361   40.0602 dc         1 CLA      0.024100
    112 H101       85.8771   57.4224   39.3959 dc         1 CLA      0.024100
    113 HHD        71.0808   56.7691   40.5561 da         1 CLA      0.174300
    114 HHC        74.8390   60.8353   43.6430 da         1 CLA      0.136800
    115 HHB        79.2293   60.6307   38.9149 da         1 CLA      0.138300
    116 HBD        75.1516   56.4709   34.6364 dc         1 CLA      0.107700
    117 HAB        76.7624   61.5863   44.4552 da         1 CLA      0.155200
    118 H93        87.0177   55.4844   36.7580 dc         1 CLA      0.069500
    119 H92        87.4210   56.9155   37.7402 dc         1 CLA      0.069500
    120 H91        87.2918   55.2704   38.4845 dc         1 CLA      0.069500
    121 H8         84.9820   56.8334   37.2987 dc         1 CLA      0.029300
    122 H72        83.3709   54.9262   38.1715 dc         1 CLA      0.044400
    123 H71        84.8772   53.9345   38.0923 dc         1 CLA      0.044400
    124 H62        85.0425   54.2912   35.6168 dc         1 CLA      0.015600
    125 H61        83.7169   55.4654   35.6276 dc         1 CLA      0.015600
    126 H52        83.6003   52.5255   36.2688 dc         1 CLA      0.033200
    127 H51        83.2394   53.3528   34.7038 dc         1 CLA      0.033200
    128 H43        79.9944   52.4873   36.9176 dc         1 CLA      0.037000
    129 H42        81.3839   51.4275   36.4501 dc         1 CLA      0.037000
    130 H41        81.3876   52.4578   37.9386 dc         1 CLA      0.037000
    131 H3A        78.7974   59.9556   36.4065 dc         1 CLA      0.041100
    132 H2A        78.1416   57.0453   36.2515 dc         1 CLA      0.083100
    133 H2         81.2520   55.5961   36.3356 da         1 CLA      0.180900
    134 H18        81.6147   59.9534   45.8715 dc         1 CLA     -0.003900
    135 H13        85.4964   57.1316   42.1538 dc         1 CLA      0.019700
    136 H12        79.7234   54.1794   34.2195 dc         1 CLA      0.120400
    137 H11        81.0875   54.8797   33.4541 dc         1 CLA      0.120400
    138 C1         67.8827   61.8608   50.7552 Z1         2 LUT      0.509236
    139 C2         66.5346   61.6316   51.5588 Z2         2 LUT     -0.434695
    140 C3         65.6181   62.8490   51.8028 Z3         2 LUT      0.437453
    141 O3         65.8547   63.4241   53.0737 S1         2 LUT     -0.547129
    142 C4         65.7355   63.9521   50.7757 Z4         2 LUT     -0.468603
    143 C5         66.3550   63.6025   49.5134 Z5         2 LUT      0.279246
    144 C6         67.2897   62.5786   49.5045 Z6         2 LUT     -0.305473
    145 C7         67.8259   62.1954   48.1055 Z7         2 LUT      0.069402
    146 C8         68.8954   62.7270   47.4627 Z8         2 LUT     -0.191631
    147 C9         69.4244   62.2422   46.2276 Z9         2 LUT      0.196698
    148 C10        70.4044   63.0410   45.6522 Y1         2 LUT     -0.208611
    149 C11        70.9791   62.9132   44.3197 Y2         2 LUT      0.030784
    150 C12        72.1136   63.5608   44.0628 Y3         2 LUT     -0.220316
    151 C13        72.9228   63.4440   42.8568 Y4         2 LUT      0.215937
    152 C14        74.1367   64.0564   42.8198 Y5         2 LUT     -0.185793
    153 C15        75.1422   64.0538   41.8067 Y6         2 LUT     -0.057835
    154 C16        68.5868   60.5373   50.3959 Y7         2 LUT     -0.405615
    155 C17        68.6660   62.7002   51.7675 Y7         2 LUT     -0.405615
    156 C18        66.0117   64.5601   48.4312 Y9         2 LUT     -0.369639
    157 C19        68.9438   60.9525   45.6188 W1         2 LUT     -0.333362
    158 C20        72.3941   62.7029   41.6697 W2         2 LUT     -0.323439
    159 C21        86.3587   65.4624   35.4758 Z1         2 LUT      0.406104
    160 C22        87.1506   64.7842   34.2480 Z2         2 LUT     -0.404965
    161 C23        87.0860   65.7447   33.0476 Z3         2 LUT      0.391255
    162 O23        87.1217   64.9196   31.9186 S1         2 LUT     -0.528210
    163 C24        85.8228   66.5662   32.9091 W6         2 LUT     -0.258361
    164 C25        84.7904   66.6072   33.6890 Z5         2 LUT      0.133546
    165 C26        84.8714   65.8782   35.0164 W8         2 LUT     -0.147008
    166 C27        84.1740   66.5941   36.2425 Z7         2 LUT      0.023843
    167 C28        82.9030   66.3606   36.6482 Z8         2 LUT     -0.216987
    168 C29        82.4307   66.5945   38.0665 Z9         2 LUT      0.206524
    169 C30        81.2323   66.0591   38.4559 Y1         2 LUT     -0.215556
    170 C31        80.5865   66.1919   39.7225 Y2         2 LUT      0.025142
    171 C32        79.3627   65.6334   39.9108 Y3         2 LUT     -0.212209
    172 C33        78.4383   65.6232   41.0030 Y4         2 LUT      0.240937
    173 C34        77.3454   64.7908   40.9504 Y5         2 LUT     -0.218862
    174 C35        76.2184   64.8166   41.8451 Y6         2 LUT     -0.023547
    175 C36        87.2897   66.6335   35.9113 Y7         2 LUT     -0.393485
    176 C37        86.3352   64.4394   36.6366 Y7         2 LUT     -0.393485
    177 C38        83.6928   67.5660   33.3293 Y9         2 LUT     -0.387526
    178 C39        83.2505   67.5238   38.9583 W1         2 LUT     -0.322618
    179 C40        78.7471   66.6677   42.0965 W2         2 LUT     -0.358472
    180 H403       78.1426   66.4909   42.9573 R7         2 LUT      0.097720
    181 H402       79.8166   66.6840   42.3120 R7         2 LUT      0.097720
    182 H401       78.6245   67.7551   41.8909 R7         2 LUT      0.097720
    183 H393       82.6402   67.8136   39.8774 R4         2 LUT      0.082505
    184 H392       84.2091   67.1904   39.3010 R4         2 LUT      0.082505
    185 H391       83.5215   68.4359   38.3849 R4         2 LUT      0.082505
    186 H383       83.4180   67.2361   32.3240 R1         2 LUT      0.104030
    187 H382       82.9399   67.5110   34.0800 R1         2 LUT      0.104030
    188 H381       84.0253   68.5920   33.2564 R1         2 LUT      0.104030
    189 H373       85.8487   64.6415   37.5912 T4         2 LUT      0.089537
    190 H372       85.9234   63.5041   36.2664 T4         2 LUT      0.089537
    191 H371       87.3709   64.0485   36.8513 T4         2 LUT      0.089537
    192 H363       88.3059   66.2264   36.1193 T4         2 LUT      0.089537
    193 H362       87.3513   67.3490   35.1196 T4         2 LUT      0.089537
    194 H361       86.9345   67.1844   36.8636 T4         2 LUT      0.089537
    195 H222       88.1724   64.6816   34.6020 U2         2 LUT      0.127376
    196 H221       86.7306   63.8280   33.9239 U2         2 LUT      0.127376
    197 H203       72.2999   61.6811   41.9141 R7         2 LUT      0.087068
    198 H202       71.4228   63.0484   41.3666 R7         2 LUT      0.087068
    199 H201       73.0593   62.6977   40.8719 R7         2 LUT      0.087068
    200 H193       67.9070   61.0406   45.2625 R4         2 LUT      0.089716
    201 H192       69.6564   60.6926   44.8353 R4         2 LUT      0.089716
    202 H191       68.9674   60.1159   46.3319 R4         2 LUT      0.089716
    203 H183       65.7982   63.9601   47.5228 R1         2 LUT      0.094572
    204 H182       65.1178   65.1327   48.5823 R1         2 LUT      0.094572
    205 H181       66.7669   65.2720   48.2119 R1         2 LUT      0.094572
    206 H173       68.0838   63.6114   52.1086 T4         2 LUT      0.093752
    207 H172       68.9325   62.1348   52.6627 T4         2 LUT      0.093752
    208 H171       69.6204   63.0546   51.2244 T4         2 LUT      0.093752
    209 H163       68.6776   59.9969   51.2976 T4         2 LUT      0.093752
    210 H162       67.9372   59.9900   49.7323 T4         2 LUT      0.093752
    211 H161       69.5603   60.7070   49.9979 T4         2 LUT      0.093752
    212 HO3        65.5521   62.7967   53.7776 Q1         2 LUT      0.300121
    213 H8         69.3048   63.6702   47.8039 U7         2 LUT      0.080784
    214 H7         67.3548   61.2866   47.6089 U6         2 LUT      0.042190
    215 H42        64.7871   64.4408   50.7380 U5         2 LUT      0.145166
    216 H41        66.2757   64.6875   51.2702 U5         2 LUT      0.145166
    217 H35        76.3569   65.4418   42.7668 T3         2 LUT      0.077919
    218 H34        77.0476   64.2014   40.1032 T2         2 LUT      0.073626
    219 H32        78.9277   65.0776   39.0881 T1         2 LUT      0.092510
    220 H31        81.0285   66.7521   40.5480 U9         2 LUT      0.070048
    221 H30        80.6774   65.4498   37.7825 U8         2 LUT      0.085442
    222 H3         64.5738   62.5430   51.6810 U3         2 LUT     -0.031596
    223 H28        82.3349   65.5984   36.0943 U7         2 LUT      0.084728
    224 H27        84.8549   67.1498   36.8936 U6         2 LUT      0.087291
    225 H26        84.5052   64.8830   34.8539 Q6         2 LUT      0.075325
    226 H24        85.8435   67.1050   31.9885 Q5         2 LUT      0.094482
    227 H23        87.9411   66.5109   33.0778 U3         2 LUT     -0.024869
    228 H22        65.9163   60.9312   51.0008 U2         2 LUT      0.127376
    229 H21        66.6645   60.9787   52.3930 U2         2 LUT      0.127376
    230 H15        74.9382   63.3461   41.0346 T3         2 LUT      0.093200
    231 H14        74.4911   64.6114   43.6892 T2         2 LUT      0.068865
    232 H12        72.3750   64.2896   44.7909 T1         2 LUT      0.095507
    233 H11        70.5726   62.2106   43.5960 U9         2 LUT      0.068930
    234 H10        70.6989   64.0238   46.1596 U8         2 LUT      0.083911
    235 H1         87.9818   64.6824   31.5900 Q1         2 LUT      0.297311
@<TRIPOS>BOND
    1     6     1 1
    2     7     2 1
    3     8     3 1
    4     9     4 1
    5    11     4 1
    6    12     6 1
    7    13     9 1
    8    16     9 1
    9    25     5 1
   10    25    16 1
   11    26    10 1
   12    26    17 1
   13    27    18 1
   14    28    14 1
   15    28    19 1
   16    29    12 1
   17    30    13 1
   18    31    24 1
   19    32     1 1
   20    32    25 1
   21    33    21 1
   22    33    26 1
   23    34    22 1
   24    34    27 1
   25    35    23 1
   26    35    28 1
   27    36    12 1
   28    36    24 1
   29    37    13 1
   30    37    15 1
   31    38    31 1
   32    39    20 1
   33    39    32 1
   34    40     2 1
   35    40    33 1
   36    41     3 1
   37    41    34 1
   38    42     4 1
   39    42    35 1
   40    43    38 1
   41    44     5 1
   42    44    17 1
   43    44    39 1
   44    45    10 1
   45    45    18 1
   46    45    40 1
   47    46    19 1
   48    46    41 1
   49    47    14 1
   50    47    16 1
   51    47    42 1
   52    48    38 1
   53    49    48 1
   54    50    49 1
   55    51    50 1
   56    52    51 1
   57    53    51 1
   58    54    53 1
   59    55    54 1
   60    56    55 1
   61    57    56 1
   62    58    56 1
   63    59    58 1
   64    60    59 1
   65    61    60 1
   66    62    61 1
   67    63    61 1
   68    64    27 1
   69    64    46 1
   70    65     5 1
   71    65    10 1
   72    65    64 1
   73    65    14 1
   74    66    23 1
   75    67    23 1
   76    68    23 1
   77    69    22 1
   78    70    22 1
   79    71    22 1
   80    72    21 1
   81    73    21 1
   82    74    21 1
   83    75    20 1
   84    76    20 1
   85    77    20 1
   86    78    15 1
   87    79    15 1
   88    80    15 1
   89    81     8 1
   90    82     8 1
   91    83     8 1
   92    84     7 1
   93    85     7 1
   94    86     6 1
   95    87     6 1
   96    88     3 1
   97    89     3 1
   98    90     1 1
   99    91     1 1
  100    92    63 1
  101    93    63 1
  102    94    63 1
  103    95    62 1
  104    96    62 1
  105    97    62 1
  106    98    60 1
  107    99    60 1
  108   100    59 1
  109   101    59 1
  110   102    58 1
  111   103    58 1
  112   104    57 1
  113   105    57 1
  114   106    57 1
  115   107    55 1
  116   108    55 1
  117   109    54 1
  118   110    54 1
  119   111    53 1
  120   112    53 1
  121   113    19 1
  122   114    18 1
  123   115    17 1
  124   116     9 1
  125   117     2 1
  126   118    52 1
  127   119    52 1
  128   120    52 1
  129   121    51 1
  130   122    50 1
  131   123    50 1
  132   124    49 1
  133   125    49 1
  134   126    48 1
  135   127    48 1
  136   128    43 1
  137   129    43 1
  138   130    43 1
  139   131    39 1
  140   132    32 1
  141   133    31 1
  142   134    61 1
  143   135    56 1
  144   136    24 1
  145   137    24 1
  146   139   138 1
  147   140   139 1
  148   141   140 1
  149   142   140 1
  150   143   142 1
  151   144   138 1
  152   144   143 1
  153   145   144 1
  154   146   145 1
  155   147   146 1
  156   148   147 1
  157   149   148 1
  158   150   149 1
  159   151   150 1
  160   152   151 1
  161   153   152 1
  162   154   138 1
  163   155   138 1
  164   156   143 1
  165   157   147 1
  166   158   151 1
  167   160   159 1
  168   161   160 1
  169   162   161 1
  170   163   161 1
  171   164   163 1
  172   165   159 1
  173   165   164 1
  174   166   165 1
  175   167   166 1
  176   168   167 1
  177   169   168 1
  178   170   169 1
  179   171   170 1
  180   172   171 1
  181   173   172 1
  182   174   153 1
  183   174   173 1
  184   175   159 1
  185   176   159 1
  186   177   164 1
  187   178   168 1
  188   179   172 1
  189   180   179 1
  190   181   179 1
  191   182   179 1
  192   183   178 1
  193   184   178 1
  194   185   178 1
  195   186   177 1
  196   187   177 1
  197   188   177 1
  198   189   176 1
  199   190   176 1
  200   191   176 1
  201   192   175 1
  202   193   175 1
  203   194   175 1
  204   195   160 1
  205   196   160 1
  206   197   158 1
  207   198   158 1
  208   199   158 1
  209   200   157 1
  210   201   157 1
  211   202   157 1
  212   203   156 1
  213   204   156 1
  214   205   156 1
  215   206   155 1
  216   207   155 1
  217   208   155 1
  218   209   154 1
  219   210   154 1
  220   211   154 1
  221   212   141 1
  222   213   146 1
  223   214   145 1
  224   215   142 1
  225   216   142 1
  226   217   174 1
  227   218   173 1
  228   219   171 1
  229   220   170 1
  230   221   169 1
  231   222   140 1
  232   223   167 1
  233   224   166 1
  234   225   165 1
  235   226   163 1
  236   227   161 1
  237   228   139 1
  238   229   139 1
  239   230   153 1
  240   231   152 1
  241   232   150 1
  242   233   149 1
  243   234   148 1
  244   235   162 1
  245   65    153 1
  246   65    174 1
@<TRIPOS>SUBSTRUCTURE
      1 CLA               1 ****               0 ****  **** 
      2 LUT             138 ****               0 ****  **** 
