@<TRIPOS>MOLECULE
Cpptraj generated mol2 file.
  235   246     2     0     0
SMALL
USER_CHARGES


@<TRIPOS>ATOM
      1 CAA        80.0106   59.4060   33.8820 a2         1 CLA     -0.055900
      2 CAB        79.6201   62.8071   43.1033 c8         1 CLA     -0.148500
      3 CAC        72.7668   58.1996   42.0845 a2         1 CLA     -0.012600
      4 CAD        75.9544   56.4040   34.8454 ck         1 CLA      0.398800
      5 NA         78.9131   59.5179   37.2211 ns         1 CLA     -0.225500
      6 CBA        81.2787   59.3414   33.0510 a2         1 CLA     -0.135000
      7 CBB        80.8075   63.2546   43.6740 c0         1 CLA     -0.395200
      8 CBC        72.9430   56.7138   42.5326 a3         1 CLA     -0.037700
      9 CBD        77.4299   57.0488   34.5980 a1         1 CLA     -0.053900
     10 NB         78.6990   60.8270   40.0249 nm         1 CLA     -0.295700
     11 OBD        75.3156   55.7113   34.0487 o2         1 CLA     -0.494600
     12 CGA        81.8861   57.9875   32.6314 c4         1 CLA      0.827000
     13 CGD        78.4470   55.8510   34.4132 c4         1 CLA      0.655300
     14 ND         76.2443   58.2442   37.8202 nm         1 CLA     -0.291600
     15 CED        79.6043   54.0170   35.5581 a3         1 CLA      0.005400
     16 CHA        77.7084   57.9444   35.8289 cs         1 CLA     -0.123800
     17 CHB        80.5562   60.9123   38.4889 aa         1 CLA     -0.291900
     18 CHC        77.1677   60.9892   41.9897 aa         1 CLA     -0.090400
     19 CHD        74.3792   58.0038   39.3305 aa         1 CLA     -0.052000
     20 CMA        82.5415   59.1944   36.5398 a3         1 CLA     -0.230700
     21 CMB        81.8619   62.7637   40.4566 a3         1 CLA     -0.180800
     22 CMC        74.8636   60.2621   43.9174 a3         1 CLA     -0.134000
     23 CMD        73.2711   56.0442   37.0777 a3         1 CLA     -0.141100
     24 C1         83.0087   56.0231   33.4459 a2         1 CLA      0.023000
     25 C1A        78.8111   58.7847   36.0551 ac         1 CLA     -0.015100
     26 C1B        79.8544   61.2529   39.6694 cr         1 CLA      0.054700
     27 C1C        76.0796   60.1859   41.6534 cn         1 CLA     -0.005600
     28 C1D        75.0312   57.7076   38.1419 ap         1 CLA     -0.047300
     29 O1A        81.8187   57.4806   31.5268 o2         1 CLA     -0.610800
     30 O1D        79.2469   55.7441   33.4771 o2         1 CLA     -0.558200
     31 C2         83.6396   55.6058   34.7366 c8         1 CLA     -0.325100
     32 C2A        80.0931   58.8469   35.3402 a1         1 CLA      0.098600
     33 C2B        80.4288   62.1322   40.6571 cb         1 CLA      0.088500
     34 C2C        74.9148   59.8003   42.4552 cb         1 CLA      0.053700
     35 C2D        74.5382   56.9075   37.0930 cb         1 CLA      0.058900
     36 O2A        82.4479   57.3917   33.7158 o1         1 CLA     -0.437200
     37 O2D        78.5187   55.0295   35.5127 o1         1 CLA     -0.357600
     38 C3         84.3377   54.4554   34.9709 c5         1 CLA      0.031200
     39 C3A        81.0251   59.7214   36.2610 a1         1 CLA      0.166800
     40 C3B        79.5012   62.1721   41.7367 cb         1 CLA      0.035000
     41 C3C        74.0863   58.8917   41.6920 cb         1 CLA     -0.089900
     42 C3D        75.5738   56.8822   36.1514 cb         1 CLA     -0.035900
     43 C4         83.7634   53.1171   35.3740 a3         1 CLA     -0.053300
     44 C4A        80.1694   60.0707   37.4234 ac         1 CLA      0.001800
     45 C4B        78.3789   61.3484   41.2811 cn         1 CLA     -0.020900
     46 C4C        74.7229   58.8328   40.4291 cr         1 CLA     -0.044400
     47 C4D        76.5735   57.7996   36.5823 c6         1 CLA     -0.046000
     48 C5         85.8502   54.6066   34.6622 a2         1 CLA     -0.070400
     49 C6         86.6540   55.7577   35.2323 a2         1 CLA      0.043900
     50 C7         86.6165   55.7957   36.7725 a2         1 CLA     -0.150000
     51 C8         87.0837   57.1247   37.4478 a1         1 CLA      0.064200
     52 C9         88.3010   57.8494   36.7446 a3         1 CLA     -0.259300
     53 C10        87.2620   56.9272   38.9595 a2         1 CLA     -0.071900
     54 C11        87.2387   58.2237   39.8782 a2         1 CLA      0.014500
     55 C12        87.4898   57.9421   41.3446 a2         1 CLA     -0.112100
     56 C13        87.0732   59.0665   42.3883 a1         1 CLA      0.089200
     57 C14        88.2453   60.1406   42.4037 a3         1 CLA     -0.239100
     58 C15        86.9025   58.4675   43.8115 a2         1 CLA     -0.102200
     59 C16        85.4860   57.9513   44.1189 a2         1 CLA      0.023900
     60 C17        85.3681   57.3332   45.5327 a2         1 CLA     -0.105700
     61 C18        85.5023   58.4229   46.6990 a1         1 CLA      0.206800
     62 C19        84.4418   59.5821   46.5880 a3         1 CLA     -0.280100
     63 C20        85.3964   57.7308   48.0575 a3         1 CLA     -0.280100
     64 NC         75.8994   59.6037   40.4424 nx         1 CLA     -0.309200
     65 MG         77.3622   59.6675   38.8100 mg         1 CLA      0.895000
     66 HMD3       72.9682   55.6676   38.1128 dc         1 CLA      0.064300
     67 HMD2       72.3853   56.5334   36.7217 dc         1 CLA      0.064300
     68 HMD1       73.4599   55.2540   36.4158 dc         1 CLA      0.064300
     69 HMC3       74.0636   59.7910   44.5076 dc         1 CLA      0.052100
     70 HMC2       75.8207   59.9091   44.2918 dc         1 CLA      0.052100
     71 HMC1       74.7366   61.3095   44.0204 dc         1 CLA      0.052100
     72 HMB3       82.5609   62.0644   40.7771 dc         1 CLA      0.063600
     73 HMB2       81.9998   62.9585   39.3630 dc         1 CLA      0.063600
     74 HMB1       81.9971   63.7687   40.9987 dc         1 CLA      0.063600
     75 HMA3       82.5564   58.2817   37.1504 dc         1 CLA      0.058300
     76 HMA2       83.0122   58.9031   35.5982 dc         1 CLA      0.058300
     77 HMA1       83.1998   59.9836   37.0149 dc         1 CLA      0.058300
     78 HED3       79.4671   53.3284   34.7404 dc         1 CLA      0.079300
     79 HED2       80.5532   54.5234   35.2899 dc         1 CLA      0.079300
     80 HED1       79.7408   53.3858   36.4030 dc         1 CLA      0.079300
     81 HBC3       73.4103   55.9574   41.8198 dc         1 CLA      0.016300
     82 HBC2       73.4865   56.7271   43.5351 dc         1 CLA      0.016300
     83 HBC1       72.0022   56.2162   42.6596 dc         1 CLA      0.016300
     84 HBB2       80.8053   63.7085   44.6907 da         1 CLA      0.183000
     85 HBB1       81.8378   63.1751   43.1498 da         1 CLA      0.183000
     86 HBA2       81.2056   59.8185   32.0742 dc         1 CLA      0.029400
     87 HBA1       82.1125   59.7408   33.5737 dc         1 CLA      0.029400
     88 HAC2       72.2108   58.6874   42.8932 dc         1 CLA      0.029300
     89 HAC1       71.9516   58.2250   41.2854 dc         1 CLA      0.029300
     90 HAA2       79.3799   58.7751   33.2638 dc         1 CLA      0.028700
     91 HAA1       79.7575   60.4429   33.8408 dc         1 CLA      0.028700
     92 H203       84.3932   57.3730   48.1305 dc         1 CLA      0.065600
     93 H202       86.0855   56.9455   48.0448 dc         1 CLA      0.065600
     94 H201       85.6247   58.4822   48.9207 dc         1 CLA      0.065600
     95 H193       84.6804   60.3573   45.8644 dc         1 CLA      0.065600
     96 H192       83.4212   59.2600   46.3861 dc         1 CLA      0.065600
     97 H191       84.4230   60.0584   47.5471 dc         1 CLA      0.065600
     98 H172       84.3975   56.9268   45.5916 dc         1 CLA      0.027600
     99 H171       86.1564   56.5106   45.5132 dc         1 CLA      0.027600
    100 H162       84.7453   58.7143   44.0890 dc         1 CLA      0.002900
    101 H161       85.1898   57.2043   43.3726 dc         1 CLA      0.002900
    102 H152       87.7427   57.7845   44.0875 dc         1 CLA      0.029100
    103 H151       87.2208   59.2648   44.4752 dc         1 CLA      0.029100
    104 H143       88.7067   60.3472   41.4044 dc         1 CLA      0.063600
    105 H142       87.8151   61.0889   42.7535 dc         1 CLA      0.063600
    106 H141       89.0785   59.7371   42.9638 dc         1 CLA      0.063600
    107 H122       86.9850   57.0636   41.6005 dc         1 CLA      0.032500
    108 H121       88.5317   57.6317   41.5993 dc         1 CLA      0.032500
    109 H112       87.9676   58.9434   39.4990 dc         1 CLA      0.006600
    110 H111       86.2581   58.6351   39.7503 dc         1 CLA      0.006600
    111 H102       86.4429   56.3450   39.2575 dc         1 CLA      0.024100
    112 H101       88.2012   56.3449   39.1661 dc         1 CLA      0.024100
    113 HHD        73.4091   57.4436   39.5522 da         1 CLA      0.174300
    114 HHC        77.0222   61.4626   42.9341 da         1 CLA      0.136800
    115 HHB        81.6384   61.1656   38.3674 da         1 CLA      0.138300
    116 HBD        77.3765   57.6028   33.6796 dc         1 CLA      0.107700
    117 HAB        78.6581   62.9316   43.6148 da         1 CLA      0.155200
    118 H93        88.2430   58.9313   37.0027 dc         1 CLA      0.069500
    119 H92        89.1500   57.2595   37.0953 dc         1 CLA      0.069500
    120 H91        88.1364   57.8338   35.6807 dc         1 CLA      0.069500
    121 H8         86.3515   57.8208   37.2035 dc         1 CLA      0.029300
    122 H72        85.6879   55.4289   37.1743 dc         1 CLA      0.044400
    123 H71        87.4431   55.1860   37.0241 dc         1 CLA      0.044400
    124 H62        87.6144   55.5487   34.8846 dc         1 CLA      0.015600
    125 H61        86.2438   56.7024   34.7587 dc         1 CLA      0.015600
    126 H52        86.1398   53.6417   35.0000 dc         1 CLA      0.033200
    127 H51        85.9582   54.6449   33.5706 dc         1 CLA      0.033200
    128 H43        84.1389   52.9024   36.3836 dc         1 CLA      0.037000
    129 H42        82.7006   53.2840   35.4337 dc         1 CLA      0.037000
    130 H41        83.8651   52.2739   34.6616 dc         1 CLA      0.037000
    131 H3A        81.1663   60.7021   35.7487 dc         1 CLA      0.041100
    132 H2A        80.4509   57.7670   35.3202 dc         1 CLA      0.083100
    133 H2         83.4952   56.1745   35.6458 da         1 CLA      0.180900
    134 H18        86.4686   58.9051   46.6032 dc         1 CLA     -0.003900
    135 H13        86.2307   59.6131   42.0256 dc         1 CLA      0.019700
    136 H12        82.2573   55.2740   33.3044 dc         1 CLA      0.120400
    137 H11        83.6672   55.9490   32.5772 dc         1 CLA      0.120400
    138 C1         69.1053   61.7832   50.3681 Z1         2 LUT      0.509236
    139 C2         67.6614   61.6240   50.9173 Z2         2 LUT     -0.434695
    140 C3         66.7716   62.8624   50.9122 Z3         2 LUT      0.437453
    141 O3         66.3789   63.0327   52.2341 S1         2 LUT     -0.547129
    142 C4         67.5261   64.1348   50.4064 Z4         2 LUT     -0.468603
    143 C5         68.4219   63.8689   49.2002 Z5         2 LUT      0.279246
    144 C6         69.2362   62.7605   49.2149 Z6         2 LUT     -0.305473
    145 C7         69.6133   62.2238   47.8864 Z7         2 LUT      0.069402
    146 C8         70.5227   62.9128   47.0951 Z8         2 LUT     -0.191631
    147 C9         70.9693   62.6305   45.7262 Z9         2 LUT      0.196698
    148 C10        72.0384   63.3452   45.2133 Y1         2 LUT     -0.208611
    149 C11        72.7198   63.2870   43.9210 Y2         2 LUT      0.030784
    150 C12        73.8983   63.9797   43.6745 Y3         2 LUT     -0.220316
    151 C13        74.7109   64.0229   42.4735 Y4         2 LUT      0.215937
    152 C14        75.8974   64.7685   42.4768 Y5         2 LUT     -0.185793
    153 C15        77.0150   64.8306   41.5672 Y6         2 LUT     -0.057835
    154 C16        69.5755   60.3713   50.0680 Y7         2 LUT     -0.405615
    155 C17        69.7903   62.3121   51.6216 Y7         2 LUT     -0.405615
    156 C18        67.7882   64.6103   48.0135 Y9         2 LUT     -0.369639
    157 C19        70.1622   61.6728   44.8974 W1         2 LUT     -0.333362
    158 C20        74.2497   63.3522   41.1797 W2         2 LUT     -0.323439
    159 C21        88.7121   66.4639   35.2998 Z1         2 LUT      0.406104
    160 C22        89.3010   65.8269   33.9760 Z2         2 LUT     -0.404965
    161 C23        89.3107   66.7014   32.7812 Z3         2 LUT      0.391255
    162 O23        89.7829   65.9002   31.6646 S1         2 LUT     -0.528210
    163 C24        87.9893   67.4434   32.6901 W6         2 LUT     -0.258361
    164 C25        87.0420   67.6247   33.6426 Z5         2 LUT      0.133546
    165 C26        87.1933   66.9000   35.0251 W8         2 LUT     -0.147008
    166 C27        86.5020   67.4942   36.1808 Z7         2 LUT      0.023843
    167 C28        85.3255   67.0194   36.6755 Z8         2 LUT     -0.216987
    168 C29        84.5940   67.3521   37.9278 Z9         2 LUT      0.206524
    169 C30        83.3978   66.6889   38.1946 Y1         2 LUT     -0.215556
    170 C31        82.5152   66.6590   39.4097 Y2         2 LUT      0.025142
    171 C32        81.3521   65.9775   39.6683 Y3         2 LUT     -0.212209
    172 C33        80.4640   66.1778   40.8328 Y4         2 LUT      0.240937
    173 C34        79.2438   65.4773   40.8522 Y5         2 LUT     -0.218862
    174 C35        78.2075   65.4206   41.8778 Y6         2 LUT     -0.023547
    175 C36        89.5573   67.6778   35.6194 Y7         2 LUT     -0.393485
    176 C37        88.9046   65.4747   36.4605 Y7         2 LUT     -0.393485
    177 C38        85.6443   68.1948   33.3212 Y9         2 LUT     -0.387526
    178 C39        85.3082   68.2603   38.9694 W1         2 LUT     -0.322618
    179 C40        81.0697   66.7279   42.0839 W2         2 LUT     -0.358472
    180 H403       80.8198   67.8215   42.2236 R7         2 LUT      0.097720
    181 H402       80.6801   66.4081   43.0306 R7         2 LUT      0.097720
    182 H401       82.1412   66.7045   42.2287 R7         2 LUT      0.097720
    183 H393       84.8664   68.1853   39.9578 R4         2 LUT      0.082505
    184 H392       86.3992   68.1896   39.0214 R4         2 LUT      0.082505
    185 H391       85.1287   69.2863   38.6799 R4         2 LUT      0.082505
    186 H383       85.3591   69.1196   33.9077 R1         2 LUT      0.104030
    187 H382       85.6959   68.5071   32.2652 R1         2 LUT      0.104030
    188 H381       84.8849   67.3489   33.3207 R1         2 LUT      0.104030
    189 H373       88.4823   64.4334   36.2758 T4         2 LUT      0.089537
    190 H372       89.9604   65.3087   36.7042 T4         2 LUT      0.089537
    191 H371       88.3558   65.7241   37.3884 T4         2 LUT      0.089537
    192 H363       89.3734   68.0173   36.5826 T4         2 LUT      0.089537
    193 H362       90.6274   67.4618   35.4660 T4         2 LUT      0.089537
    194 H361       89.2929   68.5032   34.9695 T4         2 LUT      0.089537
    195 H222       90.2565   65.3226   34.1406 U2         2 LUT      0.127376
    196 H221       88.5398   65.0456   33.7763 U2         2 LUT      0.127376
    197 H203       73.5963   64.0343   40.6050 R7         2 LUT      0.087068
    198 H202       75.0889   62.8672   40.7212 R7         2 LUT      0.087068
    199 H201       73.5517   62.5607   41.4017 R7         2 LUT      0.087068
    200 H193       70.5367   60.6566   44.9133 R4         2 LUT      0.089716
    201 H192       69.1240   61.6224   45.3103 R4         2 LUT      0.089716
    202 H191       69.9748   61.9943   43.8922 R4         2 LUT      0.089716
    203 H183       67.9527   65.6909   48.1380 R1         2 LUT      0.094572
    204 H182       68.2223   64.3472   47.0430 R1         2 LUT      0.094572
    205 H181       66.7177   64.3495   47.9023 R1         2 LUT      0.094572
    206 H173       69.8198   61.5579   52.3711 T4         2 LUT      0.093752
    207 H172       70.8098   62.6846   51.4289 T4         2 LUT      0.093752
    208 H171       69.3299   63.2061   52.0829 T4         2 LUT      0.093752
    209 H163       70.6031   60.3328   49.9411 T4         2 LUT      0.093752
    210 H162       69.3937   59.7923   50.9482 T4         2 LUT      0.093752
    211 H161       69.1045   59.7990   49.2281 T4         2 LUT      0.093752
    212 HO3        65.4845   62.7341   52.3960 Q1         2 LUT      0.300121
    213 H8         70.8947   63.8549   47.4475 U7         2 LUT      0.080784
    214 H7         69.3365   61.1869   47.5782 U6         2 LUT      0.042190
    215 H42        66.8594   64.9682   50.1090 U5         2 LUT      0.145166
    216 H41        68.0292   64.6625   51.2079 U5         2 LUT      0.145166
    217 H35        78.3882   65.8531   42.8274 T3         2 LUT      0.077919
    218 H34        78.9425   65.0333   39.9160 T2         2 LUT      0.073626
    219 H32        80.9174   65.3386   38.8771 T1         2 LUT      0.092510
    220 H31        82.7959   67.3283   40.3210 U9         2 LUT      0.070048
    221 H30        83.1229   66.0466   37.3894 U8         2 LUT      0.085442
    222 H3         65.9705   62.7102   50.2384 U3         2 LUT     -0.031596
    223 H28        84.8738   66.2879   36.0572 U7         2 LUT      0.084728
    224 H27        87.1877   68.1539   36.7172 U6         2 LUT      0.087291
    225 H26        86.5981   66.0178   34.7739 Q6         2 LUT      0.075325
    226 H24        87.8436   67.8787   31.7154 Q5         2 LUT      0.094482
    227 H23        90.1598   67.3377   33.1333 U3         2 LUT     -0.024869
    228 H22        67.1205   60.9372   50.2360 U2         2 LUT      0.127376
    229 H21        67.5070   61.0242   51.8350 U2         2 LUT      0.127376
    230 H15        76.8854   64.3348   40.6370 T3         2 LUT      0.093200
    231 H14        76.1050   65.2824   43.4666 T2         2 LUT      0.068865
    232 H12        74.3652   64.5657   44.5262 T1         2 LUT      0.095507
    233 H11        72.3138   62.5924   43.1742 U9         2 LUT      0.068930
    234 H10        72.5167   64.1317   45.7984 U8         2 LUT      0.083911
    235 H1         90.0108   66.4407   30.8837 Q1         2 LUT      0.297311
@<TRIPOS>BOND
    1     6     1 1
    2     7     2 1
    3     8     3 1
    4     9     4 1
    5    11     4 1
    6    12     6 1
    7    13     9 1
    8    16     9 1
    9    25     5 1
   10    25    16 1
   11    26    10 1
   12    26    17 1
   13    27    18 1
   14    28    14 1
   15    28    19 1
   16    29    12 1
   17    30    13 1
   18    31    24 1
   19    32     1 1
   20    32    25 1
   21    33    21 1
   22    33    26 1
   23    34    22 1
   24    34    27 1
   25    35    23 1
   26    35    28 1
   27    36    12 1
   28    36    24 1
   29    37    13 1
   30    37    15 1
   31    38    31 1
   32    39    20 1
   33    39    32 1
   34    40     2 1
   35    40    33 1
   36    41     3 1
   37    41    34 1
   38    42     4 1
   39    42    35 1
   40    43    38 1
   41    44     5 1
   42    44    17 1
   43    44    39 1
   44    45    10 1
   45    45    18 1
   46    45    40 1
   47    46    19 1
   48    46    41 1
   49    47    14 1
   50    47    16 1
   51    47    42 1
   52    48    38 1
   53    49    48 1
   54    50    49 1
   55    51    50 1
   56    52    51 1
   57    53    51 1
   58    54    53 1
   59    55    54 1
   60    56    55 1
   61    57    56 1
   62    58    56 1
   63    59    58 1
   64    60    59 1
   65    61    60 1
   66    62    61 1
   67    63    61 1
   68    64    27 1
   69    64    46 1
   70    65     5 1
   71    65    10 1
   72    65    64 1
   73    65    14 1
   74    66    23 1
   75    67    23 1
   76    68    23 1
   77    69    22 1
   78    70    22 1
   79    71    22 1
   80    72    21 1
   81    73    21 1
   82    74    21 1
   83    75    20 1
   84    76    20 1
   85    77    20 1
   86    78    15 1
   87    79    15 1
   88    80    15 1
   89    81     8 1
   90    82     8 1
   91    83     8 1
   92    84     7 1
   93    85     7 1
   94    86     6 1
   95    87     6 1
   96    88     3 1
   97    89     3 1
   98    90     1 1
   99    91     1 1
  100    92    63 1
  101    93    63 1
  102    94    63 1
  103    95    62 1
  104    96    62 1
  105    97    62 1
  106    98    60 1
  107    99    60 1
  108   100    59 1
  109   101    59 1
  110   102    58 1
  111   103    58 1
  112   104    57 1
  113   105    57 1
  114   106    57 1
  115   107    55 1
  116   108    55 1
  117   109    54 1
  118   110    54 1
  119   111    53 1
  120   112    53 1
  121   113    19 1
  122   114    18 1
  123   115    17 1
  124   116     9 1
  125   117     2 1
  126   118    52 1
  127   119    52 1
  128   120    52 1
  129   121    51 1
  130   122    50 1
  131   123    50 1
  132   124    49 1
  133   125    49 1
  134   126    48 1
  135   127    48 1
  136   128    43 1
  137   129    43 1
  138   130    43 1
  139   131    39 1
  140   132    32 1
  141   133    31 1
  142   134    61 1
  143   135    56 1
  144   136    24 1
  145   137    24 1
  146   139   138 1
  147   140   139 1
  148   141   140 1
  149   142   140 1
  150   143   142 1
  151   144   138 1
  152   144   143 1
  153   145   144 1
  154   146   145 1
  155   147   146 1
  156   148   147 1
  157   149   148 1
  158   150   149 1
  159   151   150 1
  160   152   151 1
  161   153   152 1
  162   154   138 1
  163   155   138 1
  164   156   143 1
  165   157   147 1
  166   158   151 1
  167   160   159 1
  168   161   160 1
  169   162   161 1
  170   163   161 1
  171   164   163 1
  172   165   159 1
  173   165   164 1
  174   166   165 1
  175   167   166 1
  176   168   167 1
  177   169   168 1
  178   170   169 1
  179   171   170 1
  180   172   171 1
  181   173   172 1
  182   174   153 1
  183   174   173 1
  184   175   159 1
  185   176   159 1
  186   177   164 1
  187   178   168 1
  188   179   172 1
  189   180   179 1
  190   181   179 1
  191   182   179 1
  192   183   178 1
  193   184   178 1
  194   185   178 1
  195   186   177 1
  196   187   177 1
  197   188   177 1
  198   189   176 1
  199   190   176 1
  200   191   176 1
  201   192   175 1
  202   193   175 1
  203   194   175 1
  204   195   160 1
  205   196   160 1
  206   197   158 1
  207   198   158 1
  208   199   158 1
  209   200   157 1
  210   201   157 1
  211   202   157 1
  212   203   156 1
  213   204   156 1
  214   205   156 1
  215   206   155 1
  216   207   155 1
  217   208   155 1
  218   209   154 1
  219   210   154 1
  220   211   154 1
  221   212   141 1
  222   213   146 1
  223   214   145 1
  224   215   142 1
  225   216   142 1
  226   217   174 1
  227   218   173 1
  228   219   171 1
  229   220   170 1
  230   221   169 1
  231   222   140 1
  232   223   167 1
  233   224   166 1
  234   225   165 1
  235   226   163 1
  236   227   161 1
  237   228   139 1
  238   229   139 1
  239   230   153 1
  240   231   152 1
  241   232   150 1
  242   233   149 1
  243   234   148 1
  244   235   162 1
  245   65    153 1
  246   65    174 1
@<TRIPOS>SUBSTRUCTURE
      1 CLA               1 ****               0 ****  **** 
      2 LUT             138 ****               0 ****  **** 
