@<TRIPOS>MOLECULE
Cpptraj generated mol2 file.
  235   246     2     0     0
SMALL
USER_CHARGES


@<TRIPOS>ATOM
      1 CAA        78.3145   59.0755   34.0576 a2         1 CLA     -0.055900
      2 CAB        78.7644   62.8836   43.0965 c8         1 CLA     -0.148500
      3 CAC        71.8037   58.8775   42.7782 a2         1 CLA     -0.012600
      4 CAD        74.1221   56.4397   35.4720 ck         1 CLA      0.398800
      5 NA         77.4914   59.5702   37.4939 ns         1 CLA     -0.225500
      6 CBA        79.5256   58.9703   33.0296 a2         1 CLA     -0.135000
      7 CBB        79.8756   62.7252   43.8051 c0         1 CLA     -0.395200
      8 CBC        72.0713   57.3820   42.7336 a3         1 CLA     -0.037700
      9 CBD        75.6481   57.0331   35.1002 a1         1 CLA     -0.053900
     10 NB         77.5614   61.0187   40.0752 nm         1 CLA     -0.295700
     11 OBD        73.5044   55.6294   34.8127 o2         1 CLA     -0.494600
     12 CGA        79.8900   57.4803   32.6737 c4         1 CLA      0.827000
     13 CGD        76.5562   55.9331   34.6924 c4         1 CLA      0.655300
     14 ND         74.7140   58.5864   38.3142 nm         1 CLA     -0.291600
     15 CED        77.2103   53.7147   35.1583 a3         1 CLA      0.005400
     16 CHA        76.0866   58.0308   36.2508 cs         1 CLA     -0.123800
     17 CHB        79.4293   60.8240   38.4882 aa         1 CLA     -0.291900
     18 CHC        76.2933   61.3749   42.1546 aa         1 CLA     -0.090400
     19 CHD        72.8922   58.4981   39.9230 aa         1 CLA     -0.052000
     20 CMA        80.9060   58.8927   36.5009 a3         1 CLA     -0.230700
     21 CMB        80.9030   62.5022   40.5860 a3         1 CLA     -0.180800
     22 CMC        73.9881   60.9792   44.2555 a3         1 CLA     -0.134000
     23 CMD        71.5065   56.5995   37.8485 a3         1 CLA     -0.141100
     24 C1         81.1333   55.5528   33.4498 a2         1 CLA      0.023000
     25 C1A        77.2719   58.7549   36.4268 ac         1 CLA     -0.015100
     26 C1B        78.8306   61.2614   39.6615 cr         1 CLA      0.054700
     27 C1C        75.0776   60.6531   41.9305 cn         1 CLA     -0.005600
     28 C1D        73.4695   58.0297   38.7842 ap         1 CLA     -0.047300
     29 O1A        79.5721   56.8498   31.6703 o2         1 CLA     -0.610800
     30 O1D        77.1091   55.8593   33.5878 o2         1 CLA     -0.558200
     31 C2         81.5808   55.1100   34.8644 c8         1 CLA     -0.325100
     32 C2A        78.4821   58.6828   35.5450 a1         1 CLA      0.098600
     33 C2B        79.5088   62.0069   40.7333 cb         1 CLA      0.088500
     34 C2C        74.0082   60.3902   42.8857 cb         1 CLA      0.053700
     35 C2D        72.8985   57.2055   37.7570 cb         1 CLA      0.058900
     36 O2A        80.6718   56.9313   33.6781 o1         1 CLA     -0.437200
     37 O2D        76.6035   54.9929   35.6338 o1         1 CLA     -0.357600
     38 C3         82.2692   54.0340   35.0803 c5         1 CLA      0.031200
     39 C3A        79.5467   59.5437   36.2630 a1         1 CLA      0.166800
     40 C3B        78.6243   62.2311   41.7683 cb         1 CLA      0.035000
     41 C3C        73.0273   59.6084   42.2152 cb         1 CLA     -0.089900
     42 C3D        73.8451   57.1120   36.7766 cb         1 CLA     -0.035900
     43 C4         81.4838   52.8100   35.4165 a3         1 CLA     -0.053300
     44 C4A        78.7992   60.0096   37.4882 ac         1 CLA      0.001800
     45 C4B        77.3779   61.5815   41.3417 cn         1 CLA     -0.020900
     46 C4C        73.5708   59.3432   40.9074 cr         1 CLA     -0.044400
     47 C4D        75.0094   57.9244   37.1590 c6         1 CLA     -0.046000
     48 C5         83.7275   53.9528   34.7828 a2         1 CLA     -0.070400
     49 C6         84.7430   54.8533   35.5392 a2         1 CLA      0.043900
     50 C7         84.5372   54.7362   37.0908 a2         1 CLA     -0.150000
     51 C8         85.3347   55.7580   37.8094 a1         1 CLA      0.064200
     52 C9         86.8166   55.3405   37.8572 a3         1 CLA     -0.259300
     53 C10        84.8197   56.0230   39.3007 a2         1 CLA     -0.071900
     54 C11        83.3800   56.5654   39.3966 a2         1 CLA      0.014500
     55 C12        83.0888   57.0020   40.8607 a2         1 CLA     -0.112100
     56 C13        81.7416   57.6822   41.0482 a1         1 CLA      0.089200
     57 C14        81.8190   59.1635   40.5158 a3         1 CLA     -0.239100
     58 C15        81.2720   57.6710   42.5531 a2         1 CLA     -0.102200
     59 C16        82.2539   58.2491   43.5918 a2         1 CLA      0.023900
     60 C17        81.5412   58.4201   44.9449 a2         1 CLA     -0.105700
     61 C18        82.5022   58.5138   46.1938 a1         1 CLA      0.206800
     62 C19        83.3329   57.2300   46.3729 a3         1 CLA     -0.280100
     63 C20        83.3371   59.8325   46.1874 a3         1 CLA     -0.280100
     64 NC         74.8147   59.9841   40.7656 nx         1 CLA     -0.309200
     65 MG         76.0898   59.9074   39.0784 mg         1 CLA      0.895000
     66 HMD3       71.2042   56.2328   38.9009 dc         1 CLA      0.064300
     67 HMD2       70.7370   57.3365   37.5011 dc         1 CLA      0.064300
     68 HMD1       71.5620   55.7797   37.1400 dc         1 CLA      0.064300
     69 HMC3       73.2177   60.6435   44.8768 dc         1 CLA      0.052100
     70 HMC2       74.9953   60.8330   44.7533 dc         1 CLA      0.052100
     71 HMC1       73.7931   62.0063   44.0858 dc         1 CLA      0.052100
     72 HMB3       80.9560   63.2893   41.3088 dc         1 CLA      0.063600
     73 HMB2       81.6309   61.8111   40.9383 dc         1 CLA      0.063600
     74 HMB1       81.1259   62.7763   39.5560 dc         1 CLA      0.063600
     75 HMA3       80.7155   57.8857   36.9599 dc         1 CLA      0.058300
     76 HMA2       81.4607   58.8070   35.6050 dc         1 CLA      0.058300
     77 HMA1       81.5601   59.5176   37.1845 dc         1 CLA      0.058300
     78 HED3       78.2960   53.8108   35.1277 dc         1 CLA      0.079300
     79 HED2       77.0681   53.0622   35.9557 dc         1 CLA      0.079300
     80 HED1       76.8828   53.3256   34.1642 dc         1 CLA      0.079300
     81 HBC3       71.6682   56.9423   43.6585 dc         1 CLA      0.016300
     82 HBC2       71.5920   56.8817   41.9473 dc         1 CLA      0.016300
     83 HBC1       73.1651   57.1205   42.7526 dc         1 CLA      0.016300
     84 HBB2       79.9846   63.2138   44.7596 da         1 CLA      0.183000
     85 HBB1       80.6598   62.0490   43.4403 da         1 CLA      0.183000
     86 HBA2       79.2335   59.4959   32.0932 dc         1 CLA      0.029400
     87 HBA1       80.4306   59.4059   33.4381 dc         1 CLA      0.029400
     88 HAC2       71.7110   59.1717   43.8550 dc         1 CLA      0.029300
     89 HAC1       70.8160   59.0918   42.2937 dc         1 CLA      0.029300
     90 HAA2       77.4620   58.5125   33.6651 dc         1 CLA      0.028700
     91 HAA1       77.9472   60.1630   33.9675 dc         1 CLA      0.028700
     92 H203       84.1462   59.6362   46.9035 dc         1 CLA      0.065600
     93 H202       83.8281   60.0419   45.2337 dc         1 CLA      0.065600
     94 H201       82.7542   60.7462   46.4786 dc         1 CLA      0.065600
     95 H193       83.9325   57.3321   47.2481 dc         1 CLA      0.065600
     96 H192       82.5204   56.4651   46.5420 dc         1 CLA      0.065600
     97 H191       83.9151   56.9406   45.5037 dc         1 CLA      0.065600
     98 H172       80.8642   59.2738   44.9656 dc         1 CLA      0.027600
     99 H171       81.0089   57.5051   45.0893 dc         1 CLA      0.027600
    100 H162       83.0505   57.4358   43.5689 dc         1 CLA      0.002900
    101 H161       82.6933   59.2023   43.3624 dc         1 CLA      0.002900
    102 H152       80.2689   58.2968   42.5490 dc         1 CLA      0.029100
    103 H151       81.0138   56.6696   42.7607 dc         1 CLA      0.029100
    104 H143       80.8894   59.6659   40.7277 dc         1 CLA      0.063600
    105 H142       82.5968   59.8102   41.0030 dc         1 CLA      0.063600
    106 H141       82.0917   59.0676   39.4264 dc         1 CLA      0.063600
    107 H122       83.1368   56.1607   41.5157 dc         1 CLA      0.032500
    108 H121       83.7891   57.7967   41.0883 dc         1 CLA      0.032500
    109 H112       83.1885   57.4170   38.7525 dc         1 CLA      0.006600
    110 H111       82.6567   55.7762   39.1104 dc         1 CLA      0.006600
    111 H102       84.9830   55.1443   39.8951 dc         1 CLA      0.024100
    112 H101       85.4668   56.8457   39.6217 dc         1 CLA      0.024100
    113 HHD        72.0006   57.9928   40.1171 da         1 CLA      0.174300
    114 HHC        76.4821   61.7785   43.1291 da         1 CLA      0.136800
    115 HHB        80.4771   61.1382   38.4232 da         1 CLA      0.138300
    116 HBD        75.4238   57.7234   34.2993 dc         1 CLA      0.107700
    117 HAB        77.9456   63.4916   43.5519 da         1 CLA      0.155200
    118 H93        87.0043   54.5061   38.5636 dc         1 CLA      0.069500
    119 H92        87.0355   55.0840   36.8039 dc         1 CLA      0.069500
    120 H91        87.4680   56.1911   38.2121 dc         1 CLA      0.069500
    121 H8         85.2280   56.7227   37.2972 dc         1 CLA      0.029300
    122 H72        83.4953   54.9685   37.2664 dc         1 CLA      0.044400
    123 H71        84.8336   53.7017   37.4148 dc         1 CLA      0.044400
    124 H62        85.7659   54.6485   35.1245 dc         1 CLA      0.015600
    125 H61        84.4555   55.8412   35.2282 dc         1 CLA      0.015600
    126 H52        84.1109   52.9325   34.9259 dc         1 CLA      0.033200
    127 H51        83.8513   54.1988   33.7566 dc         1 CLA      0.033200
    128 H43        80.3709   52.9506   35.3462 dc         1 CLA      0.037000
    129 H42        81.7818   51.9763   34.8188 dc         1 CLA      0.037000
    130 H41        81.6855   52.5853   36.4544 dc         1 CLA      0.037000
    131 H3A        79.8032   60.4169   35.6156 dc         1 CLA      0.041100
    132 H2A        78.8169   57.6044   35.5562 dc         1 CLA      0.083100
    133 H2         81.4571   55.7983   35.7540 da         1 CLA      0.180900
    134 H18        81.7212   58.5234   46.9446 dc         1 CLA     -0.003900
    135 H13        80.9269   57.2169   40.4880 dc         1 CLA      0.019700
    136 H12        80.2499   54.9579   33.1123 dc         1 CLA      0.120400
    137 H11        81.8748   55.4791   32.6539 dc         1 CLA      0.120400
    138 C1         68.1478   61.8347   49.9563 Z1         2 LUT      0.509236
    139 C2         66.8737   61.6973   50.7627 Z2         2 LUT     -0.434695
    140 C3         66.1569   62.9825   51.2360 Z3         2 LUT      0.437453
    141 O3         66.6541   63.2860   52.5640 S1         2 LUT     -0.547129
    142 C4         66.5618   64.1363   50.2823 Z4         2 LUT     -0.468603
    143 C5         67.1550   63.7474   48.9541 Z5         2 LUT      0.279246
    144 C6         68.0138   62.7897   48.8215 Z6         2 LUT     -0.305473
    145 C7         68.5054   62.2526   47.5160 Z7         2 LUT      0.069402
    146 C8         69.4367   63.0566   46.8422 Z8         2 LUT     -0.191631
    147 C9         69.8498   62.9146   45.4577 Z9         2 LUT      0.196698
    148 C10        70.8947   63.7117   45.0227 Y1         2 LUT     -0.208611
    149 C11        71.5014   63.5845   43.7764 Y2         2 LUT      0.030784
    150 C12        72.6810   64.2454   43.5594 Y3         2 LUT     -0.220316
    151 C13        73.5076   64.2018   42.3758 Y4         2 LUT      0.215937
    152 C14        74.6821   64.9357   42.2740 Y5         2 LUT     -0.185793
    153 C15        75.7083   64.9920   41.2868 Y6         2 LUT     -0.057835
    154 C16        68.6251   60.4213   49.4893 Y7         2 LUT     -0.405615
    155 C17        69.2982   62.1626   50.9629 Y7         2 LUT     -0.405615
    156 C18        66.6771   64.6989   47.8855 Y9         2 LUT     -0.369639
    157 C19        69.4373   61.6517   44.7319 W1         2 LUT     -0.333362
    158 C20        73.1084   63.2899   41.2061 W2         2 LUT     -0.323439
    159 C21        87.3848   65.6649   34.7435 Z1         2 LUT      0.406104
    160 C22        87.9731   65.4125   33.2939 Z2         2 LUT     -0.404965
    161 C23        88.1271   66.6874   32.3759 Z3         2 LUT      0.391255
    162 O23        88.7143   66.4016   31.0981 S1         2 LUT     -0.528210
    163 C24        86.7421   67.4248   32.3931 W6         2 LUT     -0.258361
    164 C25        85.7562   67.1785   33.2892 Z5         2 LUT      0.133546
    165 C26        85.8965   66.2143   34.5667 W8         2 LUT     -0.147008
    166 C27        85.2873   66.7625   35.8188 Z7         2 LUT      0.023843
    167 C28        84.1774   66.3314   36.4544 Z8         2 LUT     -0.216987
    168 C29        83.4563   66.9119   37.6420 Z9         2 LUT      0.206524
    169 C30        82.2751   66.2490   37.9870 Y1         2 LUT     -0.215556
    170 C31        81.4259   66.5408   39.0555 Y2         2 LUT      0.025142
    171 C32        80.2112   65.9862   39.3405 Y3         2 LUT     -0.212209
    172 C33        79.2576   66.3947   40.3985 Y4         2 LUT      0.240937
    173 C34        77.9852   65.6958   40.4859 Y5         2 LUT     -0.218862
    174 C35        76.8692   65.7159   41.3575 Y6         2 LUT     -0.023547
    175 C36        88.3446   66.4777   35.5465 Y7         2 LUT     -0.393485
    176 C37        87.2994   64.2106   35.3627 Y7         2 LUT     -0.393485
    177 C38        84.3620   67.7683   33.0626 Y9         2 LUT     -0.387526
    178 C39        84.1305   67.9967   38.4264 W1         2 LUT     -0.322618
    179 C40        79.6674   67.5823   41.1914 W2         2 LUT     -0.358472
    180 H403       79.0264   67.6207   42.0042 R7         2 LUT      0.097720
    181 H402       80.6457   67.4019   41.5167 R7         2 LUT      0.097720
    182 H401       79.7467   68.4983   40.6739 R7         2 LUT      0.097720
    183 H393       84.8930   68.6443   37.9396 R4         2 LUT      0.082505
    184 H392       83.4552   68.6709   38.9712 R4         2 LUT      0.082505
    185 H391       84.5668   67.4854   39.3313 R4         2 LUT      0.082505
    186 H383       83.5874   66.9790   33.2804 R1         2 LUT      0.104030
    187 H382       84.1488   68.6286   33.7707 R1         2 LUT      0.104030
    188 H381       84.0912   68.0584   31.9757 R1         2 LUT      0.104030
    189 H373       86.9714   64.2287   36.4152 T4         2 LUT      0.089537
    190 H372       86.6454   63.5394   34.7347 T4         2 LUT      0.089537
    191 H371       88.2513   63.7434   35.3711 T4         2 LUT      0.089537
    192 H363       88.0191   66.6078   36.5764 T4         2 LUT      0.089537
    193 H362       89.3628   66.0734   35.6431 T4         2 LUT      0.089537
    194 H361       88.4179   67.5695   35.2411 T4         2 LUT      0.089537
    195 H222       88.9425   64.8488   33.4272 U2         2 LUT      0.127376
    196 H221       87.3257   64.7657   32.7377 U2         2 LUT      0.127376
    197 H203       72.2951   63.7532   40.6949 R7         2 LUT      0.087068
    198 H202       73.8878   63.0479   40.5099 R7         2 LUT      0.087068
    199 H201       72.7668   62.2630   41.5085 R7         2 LUT      0.087068
    200 H193       68.6215   61.8615   44.0051 R4         2 LUT      0.089716
    201 H192       70.2715   61.1796   44.1941 R4         2 LUT      0.089716
    202 H191       68.9915   60.8728   45.3587 R4         2 LUT      0.089716
    203 H183       66.8638   65.7460   48.2696 R1         2 LUT      0.094572
    204 H182       67.1849   64.7019   46.9524 R1         2 LUT      0.094572
    205 H181       65.5786   64.6997   47.7191 R1         2 LUT      0.094572
    206 H173       70.2850   61.9442   50.6392 T4         2 LUT      0.093752
    207 H172       69.2360   63.2267   51.3160 T4         2 LUT      0.093752
    208 H171       69.1713   61.5935   51.8572 T4         2 LUT      0.093752
    209 H163       69.6169   60.4152   48.9708 T4         2 LUT      0.093752
    210 H162       68.7702   59.6900   50.2972 T4         2 LUT      0.093752
    211 H161       67.9061   59.9630   48.7941 T4         2 LUT      0.093752
    212 HO3        66.3680   62.5948   53.2135 Q1         2 LUT      0.300121
    213 H8         69.8036   63.9862   47.2471 U7         2 LUT      0.080784
    214 H7         68.0640   61.3449   47.0214 U6         2 LUT      0.042190
    215 H42        65.7032   64.8063   50.1985 U5         2 LUT      0.145166
    216 H41        67.3861   64.5618   50.8626 U5         2 LUT      0.145166
    217 H35        76.9499   66.3315   42.2793 T3         2 LUT      0.077919
    218 H34        77.9281   64.9428   39.6953 T2         2 LUT      0.073626
    219 H32        79.9302   65.1623   38.6846 T1         2 LUT      0.092510
    220 H31        81.8428   67.3267   39.6726 U9         2 LUT      0.070048
    221 H30        81.7915   65.6386   37.2701 U8         2 LUT      0.085442
    222 H3         65.0952   62.7721   51.2644 U3         2 LUT     -0.031596
    223 H28        83.6678   65.4588   36.0944 U7         2 LUT      0.084728
    224 H27        85.7909   67.6339   36.2451 U6         2 LUT      0.087291
    225 H26        85.4314   65.2741   34.1866 Q6         2 LUT      0.075325
    226 H24        86.4514   68.0050   31.4957 Q5         2 LUT      0.094482
    227 H23        88.9067   67.3752   32.7856 U3         2 LUT     -0.024869
    228 H22        66.1726   61.3310   50.0087 U2         2 LUT      0.127376
    229 H21        67.0994   60.9950   51.6176 U2         2 LUT      0.127376
    230 H15        75.5442   64.3385   40.4125 T3         2 LUT      0.093200
    231 H14        75.0541   65.6003   43.0783 T2         2 LUT      0.068865
    232 H12        73.0785   64.9229   44.3876 T1         2 LUT      0.095507
    233 H11        71.0102   62.9581   43.0410 U9         2 LUT      0.068930
    234 H10        71.2345   64.4829   45.7464 U8         2 LUT      0.083911
    235 H1         88.2718   65.6884   30.5557 Q1         2 LUT      0.297311
@<TRIPOS>BOND
    1     6     1 1
    2     7     2 1
    3     8     3 1
    4     9     4 1
    5    11     4 1
    6    12     6 1
    7    13     9 1
    8    16     9 1
    9    25     5 1
   10    25    16 1
   11    26    10 1
   12    26    17 1
   13    27    18 1
   14    28    14 1
   15    28    19 1
   16    29    12 1
   17    30    13 1
   18    31    24 1
   19    32     1 1
   20    32    25 1
   21    33    21 1
   22    33    26 1
   23    34    22 1
   24    34    27 1
   25    35    23 1
   26    35    28 1
   27    36    12 1
   28    36    24 1
   29    37    13 1
   30    37    15 1
   31    38    31 1
   32    39    20 1
   33    39    32 1
   34    40     2 1
   35    40    33 1
   36    41     3 1
   37    41    34 1
   38    42     4 1
   39    42    35 1
   40    43    38 1
   41    44     5 1
   42    44    17 1
   43    44    39 1
   44    45    10 1
   45    45    18 1
   46    45    40 1
   47    46    19 1
   48    46    41 1
   49    47    14 1
   50    47    16 1
   51    47    42 1
   52    48    38 1
   53    49    48 1
   54    50    49 1
   55    51    50 1
   56    52    51 1
   57    53    51 1
   58    54    53 1
   59    55    54 1
   60    56    55 1
   61    57    56 1
   62    58    56 1
   63    59    58 1
   64    60    59 1
   65    61    60 1
   66    62    61 1
   67    63    61 1
   68    64    27 1
   69    64    46 1
   70    65     5 1
   71    65    10 1
   72    65    64 1
   73    65    14 1
   74    66    23 1
   75    67    23 1
   76    68    23 1
   77    69    22 1
   78    70    22 1
   79    71    22 1
   80    72    21 1
   81    73    21 1
   82    74    21 1
   83    75    20 1
   84    76    20 1
   85    77    20 1
   86    78    15 1
   87    79    15 1
   88    80    15 1
   89    81     8 1
   90    82     8 1
   91    83     8 1
   92    84     7 1
   93    85     7 1
   94    86     6 1
   95    87     6 1
   96    88     3 1
   97    89     3 1
   98    90     1 1
   99    91     1 1
  100    92    63 1
  101    93    63 1
  102    94    63 1
  103    95    62 1
  104    96    62 1
  105    97    62 1
  106    98    60 1
  107    99    60 1
  108   100    59 1
  109   101    59 1
  110   102    58 1
  111   103    58 1
  112   104    57 1
  113   105    57 1
  114   106    57 1
  115   107    55 1
  116   108    55 1
  117   109    54 1
  118   110    54 1
  119   111    53 1
  120   112    53 1
  121   113    19 1
  122   114    18 1
  123   115    17 1
  124   116     9 1
  125   117     2 1
  126   118    52 1
  127   119    52 1
  128   120    52 1
  129   121    51 1
  130   122    50 1
  131   123    50 1
  132   124    49 1
  133   125    49 1
  134   126    48 1
  135   127    48 1
  136   128    43 1
  137   129    43 1
  138   130    43 1
  139   131    39 1
  140   132    32 1
  141   133    31 1
  142   134    61 1
  143   135    56 1
  144   136    24 1
  145   137    24 1
  146   139   138 1
  147   140   139 1
  148   141   140 1
  149   142   140 1
  150   143   142 1
  151   144   138 1
  152   144   143 1
  153   145   144 1
  154   146   145 1
  155   147   146 1
  156   148   147 1
  157   149   148 1
  158   150   149 1
  159   151   150 1
  160   152   151 1
  161   153   152 1
  162   154   138 1
  163   155   138 1
  164   156   143 1
  165   157   147 1
  166   158   151 1
  167   160   159 1
  168   161   160 1
  169   162   161 1
  170   163   161 1
  171   164   163 1
  172   165   159 1
  173   165   164 1
  174   166   165 1
  175   167   166 1
  176   168   167 1
  177   169   168 1
  178   170   169 1
  179   171   170 1
  180   172   171 1
  181   173   172 1
  182   174   153 1
  183   174   173 1
  184   175   159 1
  185   176   159 1
  186   177   164 1
  187   178   168 1
  188   179   172 1
  189   180   179 1
  190   181   179 1
  191   182   179 1
  192   183   178 1
  193   184   178 1
  194   185   178 1
  195   186   177 1
  196   187   177 1
  197   188   177 1
  198   189   176 1
  199   190   176 1
  200   191   176 1
  201   192   175 1
  202   193   175 1
  203   194   175 1
  204   195   160 1
  205   196   160 1
  206   197   158 1
  207   198   158 1
  208   199   158 1
  209   200   157 1
  210   201   157 1
  211   202   157 1
  212   203   156 1
  213   204   156 1
  214   205   156 1
  215   206   155 1
  216   207   155 1
  217   208   155 1
  218   209   154 1
  219   210   154 1
  220   211   154 1
  221   212   141 1
  222   213   146 1
  223   214   145 1
  224   215   142 1
  225   216   142 1
  226   217   174 1
  227   218   173 1
  228   219   171 1
  229   220   170 1
  230   221   169 1
  231   222   140 1
  232   223   167 1
  233   224   166 1
  234   225   165 1
  235   226   163 1
  236   227   161 1
  237   228   139 1
  238   229   139 1
  239   230   153 1
  240   231   152 1
  241   232   150 1
  242   233   149 1
  243   234   148 1
  244   235   162 1
  245   65    153 1
  246   65    174 1
@<TRIPOS>SUBSTRUCTURE
      1 CLA               1 ****               0 ****  **** 
      2 LUT             138 ****               0 ****  **** 
