@<TRIPOS>MOLECULE
Cpptraj generated mol2 file.
  235   246     2     0     0
SMALL
USER_CHARGES


@<TRIPOS>ATOM
      1 CAA        79.9699   59.3239   34.2705 a2         1 CLA     -0.055900
      2 CAB        79.3565   62.1407   43.5606 c8         1 CLA     -0.148500
      3 CAC        72.4015   58.3097   42.2974 a2         1 CLA     -0.012600
      4 CAD        75.6816   56.4292   35.0900 ck         1 CLA      0.398800
      5 NA         78.6457   59.4853   37.5175 ns         1 CLA     -0.225500
      6 CBA        81.2383   59.0503   33.4343 a2         1 CLA     -0.135000
      7 CBB        80.2979   61.6924   44.4450 c0         1 CLA     -0.395200
      8 CBC        72.7033   56.7868   42.3337 a3         1 CLA     -0.037700
      9 CBD        77.0873   57.0769   34.7905 a1         1 CLA     -0.053900
     10 NB         78.2232   60.7752   40.3180 nm         1 CLA     -0.295700
     11 OBD        75.0323   55.5932   34.4102 o2         1 CLA     -0.494600
     12 CGA        81.5655   57.6509   33.0441 c4         1 CLA      0.827000
     13 CGD        78.0763   55.9214   34.6863 c4         1 CLA      0.655300
     14 ND         75.8435   58.5099   37.9698 nm         1 CLA     -0.291600
     15 CED        78.8007   53.8622   35.5877 a3         1 CLA      0.005400
     16 CHA        77.3936   58.0474   35.9849 cs         1 CLA     -0.123800
     17 CHB        80.2683   60.6664   38.8867 aa         1 CLA     -0.291900
     18 CHC        76.8204   60.8352   42.3268 aa         1 CLA     -0.090400
     19 CHD        73.8722   58.2070   39.4722 aa         1 CLA     -0.052000
     20 CMA        82.0146   58.5065   37.4131 a3         1 CLA     -0.230700
     21 CMB        81.6872   61.6734   41.3516 a3         1 CLA     -0.180800
     22 CMC        74.3902   60.1855   44.1896 a3         1 CLA     -0.134000
     23 CMD        72.8689   56.2094   37.0769 a3         1 CLA     -0.141100
     24 C1         82.7619   55.6539   33.7556 a2         1 CLA      0.023000
     25 C1A        78.5748   58.7923   36.3263 ac         1 CLA     -0.015100
     26 C1B        79.5647   61.0186   40.1079 cr         1 CLA      0.054700
     27 C1C        75.6126   60.2429   41.8268 cn         1 CLA     -0.005600
     28 C1D        74.5804   57.9612   38.2288 ap         1 CLA     -0.047300
     29 O1A        81.3607   57.1304   31.9271 o2         1 CLA     -0.610800
     30 O1D        78.9313   55.8268   33.8129 o2         1 CLA     -0.558200
     31 C2         83.6210   55.1223   34.8697 c8         1 CLA     -0.325100
     32 C2A        79.9685   58.6991   35.7018 a1         1 CLA      0.098600
     33 C2B        80.2063   61.3978   41.2640 cb         1 CLA      0.088500
     34 C2C        74.4700   59.8697   42.6832 cb         1 CLA      0.053700
     35 C2D        74.1517   57.0915   37.1578 cb         1 CLA      0.058900
     36 O2A        82.2684   56.9988   34.0926 o1         1 CLA     -0.437200
     37 O2D        77.8973   54.9854   35.6239 o1         1 CLA     -0.357600
     38 C3         84.9445   54.9592   35.0376 c5         1 CLA      0.031200
     39 C3A        80.9055   59.4203   36.7434 a1         1 CLA      0.166800
     40 C3B        79.2053   61.5849   42.2165 cb         1 CLA      0.035000
     41 C3C        73.6757   59.0917   41.8933 cb         1 CLA     -0.089900
     42 C3D        75.2455   57.0277   36.2897 cb         1 CLA     -0.035900
     43 C4         85.5567   53.5842   34.8191 a3         1 CLA     -0.053300
     44 C4A        79.8819   59.9929   37.7491 ac         1 CLA      0.001800
     45 C4B        78.0045   61.0370   41.6275 cn         1 CLA     -0.020900
     46 C4C        74.3656   58.9604   40.5710 cr         1 CLA     -0.044400
     47 C4D        76.2634   57.9632   36.8017 c6         1 CLA     -0.046000
     48 C5         85.7344   56.0706   35.4288 a2         1 CLA     -0.070400
     49 C6         85.9200   56.3207   36.9282 a2         1 CLA      0.043900
     50 C7         87.1903   57.0746   37.3352 a2         1 CLA     -0.150000
     51 C8         87.1753   57.5714   38.8169 a1         1 CLA      0.064200
     52 C9         88.3022   58.6539   38.9912 a3         1 CLA     -0.259300
     53 C10        87.3885   56.4333   39.8771 a2         1 CLA     -0.071900
     54 C11        87.8381   56.9082   41.3068 a2         1 CLA      0.014500
     55 C12        88.2367   55.7538   42.2041 a2         1 CLA     -0.112100
     56 C13        88.7974   56.1600   43.5864 a1         1 CLA      0.089200
     57 C14        89.3218   54.9272   44.4843 a3         1 CLA     -0.239100
     58 C15        87.7562   56.9807   44.3783 a2         1 CLA     -0.102200
     59 C16        88.3931   57.6136   45.6486 a2         1 CLA      0.023900
     60 C17        87.4313   57.4262   46.7740 a2         1 CLA     -0.105700
     61 C18        87.9747   57.8463   48.1358 a1         1 CLA      0.206800
     62 C19        86.7384   57.8613   49.0684 a3         1 CLA     -0.280100
     63 C20        89.0634   56.8848   48.6843 a3         1 CLA     -0.280100
     64 NC         75.5165   59.7072   40.5744 nx         1 CLA     -0.309200
     65 MG         76.9355   59.7602   39.0200 mg         1 CLA      0.895000
     66 HMD3       72.1568   56.8395   36.5052 dc         1 CLA      0.064300
     67 HMD2       73.1788   55.4301   36.4667 dc         1 CLA      0.064300
     68 HMD1       72.5097   55.9522   38.0359 dc         1 CLA      0.064300
     69 HMC3       73.3908   60.2185   44.5630 dc         1 CLA      0.052100
     70 HMC2       74.9249   59.3727   44.7076 dc         1 CLA      0.052100
     71 HMC1       74.9790   61.0502   44.3110 dc         1 CLA      0.052100
     72 HMB3       81.8085   62.3348   40.4590 dc         1 CLA      0.063600
     73 HMB2       81.8987   62.2281   42.2302 dc         1 CLA      0.063600
     74 HMB1       82.3982   60.8759   41.1100 dc         1 CLA      0.063600
     75 HMA3       81.4378   57.6917   37.9974 dc         1 CLA      0.058300
     76 HMA2       82.6932   58.0218   36.6606 dc         1 CLA      0.058300
     77 HMA1       82.6456   58.9861   38.0973 dc         1 CLA      0.058300
     78 HED3       79.7535   54.1677   36.0963 dc         1 CLA      0.079300
     79 HED2       78.4712   52.9818   36.1009 dc         1 CLA      0.079300
     80 HED1       78.9029   53.5820   34.5580 dc         1 CLA      0.079300
     81 HBC3       73.4227   56.7493   43.1377 dc         1 CLA      0.016300
     82 HBC2       71.8179   56.1792   42.5479 dc         1 CLA      0.016300
     83 HBC1       73.1654   56.4585   41.4311 dc         1 CLA      0.016300
     84 HBB2       80.3280   61.9669   45.5404 da         1 CLA      0.183000
     85 HBB1       81.0268   60.8922   44.1685 da         1 CLA      0.183000
     86 HBA2       81.2308   59.6274   32.5385 dc         1 CLA      0.029400
     87 HBA1       82.0448   59.4884   34.0684 dc         1 CLA      0.029400
     88 HAC2       71.9977   58.6630   43.3023 dc         1 CLA      0.029300
     89 HAC1       71.6208   58.5068   41.5227 dc         1 CLA      0.029300
     90 HAA2       79.0848   59.0602   33.6553 dc         1 CLA      0.028700
     91 HAA1       79.7692   60.3755   34.3876 dc         1 CLA      0.028700
     92 H203       89.2174   57.2719   49.6884 dc         1 CLA      0.065600
     93 H202       88.6371   55.9740   48.5878 dc         1 CLA      0.065600
     94 H201       90.0257   56.8382   48.1472 dc         1 CLA      0.065600
     95 H193       86.0114   58.5956   48.6894 dc         1 CLA      0.065600
     96 H192       86.3653   56.8213   49.2184 dc         1 CLA      0.065600
     97 H191       87.1482   58.2053   50.0250 dc         1 CLA      0.065600
     98 H172       86.4969   57.9414   46.6139 dc         1 CLA      0.027600
     99 H171       87.2046   56.3410   46.8180 dc         1 CLA      0.027600
    100 H162       89.3009   57.0883   45.8865 dc         1 CLA      0.002900
    101 H161       88.7961   58.5799   45.4432 dc         1 CLA      0.002900
    102 H152       87.4922   57.8529   43.7427 dc         1 CLA      0.029100
    103 H151       86.9105   56.4517   44.5361 dc         1 CLA      0.029100
    104 H143       89.7209   54.1963   43.7639 dc         1 CLA      0.063600
    105 H142       90.0159   55.1921   45.2416 dc         1 CLA      0.063600
    106 H141       88.4574   54.4738   44.9497 dc         1 CLA      0.063600
    107 H122       87.4060   55.1061   42.2771 dc         1 CLA      0.032500
    108 H121       89.0608   55.1819   41.7321 dc         1 CLA      0.032500
    109 H112       88.6603   57.5425   41.1474 dc         1 CLA      0.006600
    110 H111       87.0295   57.5608   41.6975 dc         1 CLA      0.006600
    111 H102       86.5191   55.8578   39.7796 dc         1 CLA      0.024100
    112 H101       88.1556   55.7620   39.5343 dc         1 CLA      0.024100
    113 HHD        72.9452   57.6717   39.6177 da         1 CLA      0.174300
    114 HHC        76.7836   61.0386   43.3854 da         1 CLA      0.136800
    115 HHB        81.3881   60.7960   39.0075 da         1 CLA      0.138300
    116 HBD        77.0779   57.6201   33.8700 dc         1 CLA      0.107700
    117 HAB        78.6868   62.8442   43.9233 da         1 CLA      0.155200
    118 H93        88.1310   59.3387   39.8524 dc         1 CLA      0.069500
    119 H92        89.2842   58.2076   38.9577 dc         1 CLA      0.069500
    120 H91        88.1094   59.2133   38.1301 dc         1 CLA      0.069500
    121 H8         86.2489   58.0752   39.1701 dc         1 CLA      0.029300
    122 H72        88.0556   56.4249   37.2617 dc         1 CLA      0.044400
    123 H71        87.1905   57.9673   36.6775 dc         1 CLA      0.044400
    124 H62        85.1179   57.0602   37.2834 dc         1 CLA      0.015600
    125 H61        85.7093   55.4064   37.4735 dc         1 CLA      0.015600
    126 H52        86.7528   55.8772   35.1159 dc         1 CLA      0.033200
    127 H51        85.3388   56.9640   34.9921 dc         1 CLA      0.033200
    128 H43        85.7718   53.1827   35.8264 dc         1 CLA      0.037000
    129 H42        84.8967   52.9046   34.2997 dc         1 CLA      0.037000
    130 H41        86.4739   53.6945   34.1608 dc         1 CLA      0.037000
    131 H3A        81.5275   60.1774   36.2417 dc         1 CLA      0.041100
    132 H2A        80.2898   57.6152   35.5725 dc         1 CLA      0.083100
    133 H2         82.9855   54.8802   35.7104 da         1 CLA      0.180900
    134 H18        88.3404   58.8311   47.9663 dc         1 CLA     -0.003900
    135 H13        89.7272   56.6961   43.3163 dc         1 CLA      0.019700
    136 H12        81.9129   54.9371   33.6564 dc         1 CLA      0.120400
    137 H11        83.4814   55.6679   32.9431 dc         1 CLA      0.120400
    138 C1         69.9067   60.9147   49.3102 Z1         2 LUT      0.509236
    139 C2         69.5844   61.6296   50.7041 Z2         2 LUT     -0.434695
    140 C3         68.1088   61.8856   50.7750 Z3         2 LUT      0.437453
    141 O3         67.5928   62.4570   51.9296 S1         2 LUT     -0.547129
    142 C4         67.6723   62.7536   49.6103 Z4         2 LUT     -0.468603
    143 C5         68.2306   62.5014   48.2303 Z5         2 LUT      0.279246
    144 C6         69.2593   61.5887   48.0903 Z6         2 LUT     -0.305473
    145 C7         70.0357   61.3839   46.8203 Z7         2 LUT      0.069402
    146 C8         70.8364   62.2547   46.1131 Z8         2 LUT     -0.191631
    147 C9         71.3677   62.0783   44.7512 Z9         2 LUT      0.196698
    148 C10        72.4357   62.8572   44.4362 Y1         2 LUT     -0.208611
    149 C11        73.2011   62.9244   43.2200 Y2         2 LUT      0.030784
    150 C12        74.4081   63.6253   43.0232 Y3         2 LUT     -0.220316
    151 C13        75.3344   63.7769   41.9050 Y4         2 LUT      0.215937
    152 C14        76.5661   64.4346   42.0625 Y5         2 LUT     -0.185793
    153 C15        77.5739   64.6405   41.1216 Y6         2 LUT     -0.057835
    154 C16        69.3934   59.4385   49.2966 Y7         2 LUT     -0.405615
    155 C17        71.4368   60.8168   49.2833 Y7         2 LUT     -0.405615
    156 C18        67.7644   63.4656   47.2352 Y9         2 LUT     -0.369639
    157 C19        70.5632   61.1202   43.8039 W1         2 LUT     -0.333362
    158 C20        74.5973   63.4063   40.5779 W2         2 LUT     -0.323439
    159 C21        88.7164   65.6547   34.7272 Z1         2 LUT      0.406104
    160 C22        89.3705   65.1690   33.3531 Z2         2 LUT     -0.404965
    161 C23        89.6657   66.3911   32.3979 Z3         2 LUT      0.391255
    162 O23        90.5035   65.8878   31.3417 S1         2 LUT     -0.528210
    163 C24        88.4521   67.1564   32.1502 W6         2 LUT     -0.258361
    164 C25        87.4571   67.2207   33.0183 Z5         2 LUT      0.133546
    165 C26        87.3310   66.4316   34.3180 W8         2 LUT     -0.147008
    166 C27        86.6207   67.0283   35.4520 Z7         2 LUT      0.023843
    167 C28        85.3612   66.6662   35.8458 Z8         2 LUT     -0.216987
    168 C29        84.6643   67.1205   37.0215 Z9         2 LUT      0.206524
    169 C30        83.5315   66.4559   37.4483 Y1         2 LUT     -0.215556
    170 C31        82.6479   66.7297   38.5864 Y2         2 LUT      0.025142
    171 C32        81.5729   65.9902   38.9678 Y3         2 LUT     -0.212209
    172 C33        80.7180   66.2367   40.0306 Y4         2 LUT      0.240937
    173 C34        79.6926   65.3370   40.1208 Y5         2 LUT     -0.218862
    174 C35        78.7626   65.2844   41.2232 Y6         2 LUT     -0.023547
    175 C36        89.6887   66.6635   35.3885 Y7         2 LUT     -0.393485
    176 C37        88.3632   64.3879   35.5959 Y7         2 LUT     -0.393485
    177 C38        86.3203   68.1792   32.8007 Y9         2 LUT     -0.387526
    178 C39        85.1921   68.4005   37.7147 W1         2 LUT     -0.322618
    179 C40        81.1126   67.2681   41.1408 W2         2 LUT     -0.358472
    180 H403       80.9737   66.8388   42.0622 R7         2 LUT      0.097720
    181 H402       82.1573   67.5851   41.3146 R7         2 LUT      0.097720
    182 H401       80.5393   68.1243   41.0868 R7         2 LUT      0.097720
    183 H393       85.2313   69.2050   37.0462 R4         2 LUT      0.082505
    184 H392       84.5322   68.6412   38.5438 R4         2 LUT      0.082505
    185 H391       86.1432   68.3143   38.2479 R4         2 LUT      0.082505
    186 H383       86.6610   69.2266   32.9512 R1         2 LUT      0.104030
    187 H382       86.0411   68.1224   31.7806 R1         2 LUT      0.104030
    188 H381       85.3618   68.0034   33.4230 R1         2 LUT      0.104030
    189 H373       89.0687   63.6171   35.3478 T4         2 LUT      0.089537
    190 H372       88.4906   64.5459   36.6653 T4         2 LUT      0.089537
    191 H371       87.3427   64.1268   35.4637 T4         2 LUT      0.089537
    192 H363       89.3619   66.8719   36.4040 T4         2 LUT      0.089537
    193 H362       90.7162   66.2297   35.5002 T4         2 LUT      0.089537
    194 H361       89.8664   67.5833   34.9089 T4         2 LUT      0.089537
    195 H222       90.2427   64.6629   33.5722 U2         2 LUT      0.127376
    196 H221       88.6669   64.6393   32.6845 U2         2 LUT      0.127376
    197 H203       74.3256   62.3208   40.5136 R7         2 LUT      0.087068
    198 H202       73.6667   63.9780   40.2232 R7         2 LUT      0.087068
    199 H201       75.2411   63.4088   39.6968 R7         2 LUT      0.087068
    200 H193       71.0866   61.0497   42.8491 R4         2 LUT      0.089716
    201 H192       70.5064   60.1452   44.3072 R4         2 LUT      0.089716
    202 H191       69.5987   61.5230   43.6510 R4         2 LUT      0.089716
    203 H183       68.2789   64.4465   47.2953 R1         2 LUT      0.094572
    204 H182       67.9111   63.0634   46.2032 R1         2 LUT      0.094572
    205 H181       66.6805   63.6311   47.3385 R1         2 LUT      0.094572
    206 H173       71.9453   61.8062   49.2638 T4         2 LUT      0.093752
    207 H172       71.7808   60.3331   50.1700 T4         2 LUT      0.093752
    208 H171       71.8977   60.2436   48.3985 T4         2 LUT      0.093752
    209 H163       69.8163   58.8029   48.5045 T4         2 LUT      0.093752
    210 H162       69.6354   58.9299   50.2185 T4         2 LUT      0.093752
    211 H161       68.3244   59.4018   49.0465 T4         2 LUT      0.093752
    212 HO3        67.7432   61.9313   52.7277 Q1         2 LUT      0.300121
    213 H8         71.1865   63.2198   46.4888 U7         2 LUT      0.080784
    214 H7         69.7510   60.4071   46.3201 U6         2 LUT      0.042190
    215 H42        66.5476   62.7107   49.4678 U5         2 LUT      0.145166
    216 H41        67.6854   63.8099   49.8735 U5         2 LUT      0.145166
    217 H35        79.1140   65.8002   42.1333 T3         2 LUT      0.077919
    218 H34        79.6118   64.6357   39.3103 T2         2 LUT      0.073626
    219 H32        81.3579   65.1059   38.3796 T1         2 LUT      0.092510
    220 H31        82.8713   67.6109   39.2423 U9         2 LUT      0.070048
    221 H30        83.2022   65.7030   36.7529 U8         2 LUT      0.085442
    222 H3         67.6078   60.9047   50.6396 U3         2 LUT     -0.031596
    223 H28        84.7887   66.1482   35.0813 U7         2 LUT      0.084728
    224 H27        87.1433   67.7807   36.0990 U6         2 LUT      0.087291
    225 H26        86.7376   65.6279   33.8096 Q6         2 LUT      0.075325
    226 H24        88.3476   67.8277   31.2751 Q5         2 LUT      0.094482
    227 H23        90.4230   67.0248   32.9152 U3         2 LUT     -0.024869
    228 H22        69.9067   61.1279   51.5610 U2         2 LUT      0.127376
    229 H21        70.1091   62.5825   50.7642 U2         2 LUT      0.127376
    230 H15        77.5702   64.0952   40.1069 T3         2 LUT      0.093200
    231 H14        76.8360   64.7110   43.1017 T2         2 LUT      0.068865
    232 H12        74.6503   64.0968   44.0032 T1         2 LUT      0.095507
    233 H11        72.8729   62.2989   42.4432 U9         2 LUT      0.068930
    234 H10        72.8880   63.6045   45.1356 U8         2 LUT      0.083911
    235 H1         90.0510   65.5298   30.5491 Q1         2 LUT      0.297311
@<TRIPOS>BOND
    1     6     1 1
    2     7     2 1
    3     8     3 1
    4     9     4 1
    5    11     4 1
    6    12     6 1
    7    13     9 1
    8    16     9 1
    9    25     5 1
   10    25    16 1
   11    26    10 1
   12    26    17 1
   13    27    18 1
   14    28    14 1
   15    28    19 1
   16    29    12 1
   17    30    13 1
   18    31    24 1
   19    32     1 1
   20    32    25 1
   21    33    21 1
   22    33    26 1
   23    34    22 1
   24    34    27 1
   25    35    23 1
   26    35    28 1
   27    36    12 1
   28    36    24 1
   29    37    13 1
   30    37    15 1
   31    38    31 1
   32    39    20 1
   33    39    32 1
   34    40     2 1
   35    40    33 1
   36    41     3 1
   37    41    34 1
   38    42     4 1
   39    42    35 1
   40    43    38 1
   41    44     5 1
   42    44    17 1
   43    44    39 1
   44    45    10 1
   45    45    18 1
   46    45    40 1
   47    46    19 1
   48    46    41 1
   49    47    14 1
   50    47    16 1
   51    47    42 1
   52    48    38 1
   53    49    48 1
   54    50    49 1
   55    51    50 1
   56    52    51 1
   57    53    51 1
   58    54    53 1
   59    55    54 1
   60    56    55 1
   61    57    56 1
   62    58    56 1
   63    59    58 1
   64    60    59 1
   65    61    60 1
   66    62    61 1
   67    63    61 1
   68    64    27 1
   69    64    46 1
   70    65     5 1
   71    65    10 1
   72    65    64 1
   73    65    14 1
   74    66    23 1
   75    67    23 1
   76    68    23 1
   77    69    22 1
   78    70    22 1
   79    71    22 1
   80    72    21 1
   81    73    21 1
   82    74    21 1
   83    75    20 1
   84    76    20 1
   85    77    20 1
   86    78    15 1
   87    79    15 1
   88    80    15 1
   89    81     8 1
   90    82     8 1
   91    83     8 1
   92    84     7 1
   93    85     7 1
   94    86     6 1
   95    87     6 1
   96    88     3 1
   97    89     3 1
   98    90     1 1
   99    91     1 1
  100    92    63 1
  101    93    63 1
  102    94    63 1
  103    95    62 1
  104    96    62 1
  105    97    62 1
  106    98    60 1
  107    99    60 1
  108   100    59 1
  109   101    59 1
  110   102    58 1
  111   103    58 1
  112   104    57 1
  113   105    57 1
  114   106    57 1
  115   107    55 1
  116   108    55 1
  117   109    54 1
  118   110    54 1
  119   111    53 1
  120   112    53 1
  121   113    19 1
  122   114    18 1
  123   115    17 1
  124   116     9 1
  125   117     2 1
  126   118    52 1
  127   119    52 1
  128   120    52 1
  129   121    51 1
  130   122    50 1
  131   123    50 1
  132   124    49 1
  133   125    49 1
  134   126    48 1
  135   127    48 1
  136   128    43 1
  137   129    43 1
  138   130    43 1
  139   131    39 1
  140   132    32 1
  141   133    31 1
  142   134    61 1
  143   135    56 1
  144   136    24 1
  145   137    24 1
  146   139   138 1
  147   140   139 1
  148   141   140 1
  149   142   140 1
  150   143   142 1
  151   144   138 1
  152   144   143 1
  153   145   144 1
  154   146   145 1
  155   147   146 1
  156   148   147 1
  157   149   148 1
  158   150   149 1
  159   151   150 1
  160   152   151 1
  161   153   152 1
  162   154   138 1
  163   155   138 1
  164   156   143 1
  165   157   147 1
  166   158   151 1
  167   160   159 1
  168   161   160 1
  169   162   161 1
  170   163   161 1
  171   164   163 1
  172   165   159 1
  173   165   164 1
  174   166   165 1
  175   167   166 1
  176   168   167 1
  177   169   168 1
  178   170   169 1
  179   171   170 1
  180   172   171 1
  181   173   172 1
  182   174   153 1
  183   174   173 1
  184   175   159 1
  185   176   159 1
  186   177   164 1
  187   178   168 1
  188   179   172 1
  189   180   179 1
  190   181   179 1
  191   182   179 1
  192   183   178 1
  193   184   178 1
  194   185   178 1
  195   186   177 1
  196   187   177 1
  197   188   177 1
  198   189   176 1
  199   190   176 1
  200   191   176 1
  201   192   175 1
  202   193   175 1
  203   194   175 1
  204   195   160 1
  205   196   160 1
  206   197   158 1
  207   198   158 1
  208   199   158 1
  209   200   157 1
  210   201   157 1
  211   202   157 1
  212   203   156 1
  213   204   156 1
  214   205   156 1
  215   206   155 1
  216   207   155 1
  217   208   155 1
  218   209   154 1
  219   210   154 1
  220   211   154 1
  221   212   141 1
  222   213   146 1
  223   214   145 1
  224   215   142 1
  225   216   142 1
  226   217   174 1
  227   218   173 1
  228   219   171 1
  229   220   170 1
  230   221   169 1
  231   222   140 1
  232   223   167 1
  233   224   166 1
  234   225   165 1
  235   226   163 1
  236   227   161 1
  237   228   139 1
  238   229   139 1
  239   230   153 1
  240   231   152 1
  241   232   150 1
  242   233   149 1
  243   234   148 1
  244   235   162 1
  245   65    153 1
  246   65    174 1
@<TRIPOS>SUBSTRUCTURE
      1 CLA               1 ****               0 ****  **** 
      2 LUT             138 ****               0 ****  **** 
