@<TRIPOS>MOLECULE
Cpptraj generated mol2 file.
  235   246     2     0     0
SMALL
USER_CHARGES


@<TRIPOS>ATOM
      1 CAA        77.0461   57.4778   33.3467 a2         1 CLA     -0.055900
      2 CAB        77.2977   61.1533   42.5301 c8         1 CLA     -0.148500
      3 CAC        70.1233   57.3703   41.9535 a2         1 CLA     -0.012600
      4 CAD        72.8606   54.9644   34.6434 ck         1 CLA      0.398800
      5 NA         76.0464   57.9218   36.9253 ns         1 CLA     -0.225500
      6 CBA        78.2744   57.0060   32.5581 a2         1 CLA     -0.135000
      7 CBB        78.4491   61.0297   43.2203 c0         1 CLA     -0.395200
      8 CBC        70.2427   55.9790   42.4149 a3         1 CLA     -0.037700
      9 CBD        74.3049   55.4780   34.3544 a1         1 CLA     -0.053900
     10 NB         76.0342   59.2423   39.5628 nm         1 CLA     -0.295700
     11 OBD        72.2650   54.1503   33.9685 o2         1 CLA     -0.494600
     12 CGA        78.5008   55.5634   32.2810 c4         1 CLA      0.827000
     13 CGD        75.2275   54.3823   34.4456 c4         1 CLA      0.655300
     14 ND         73.2575   57.0850   37.4769 nm         1 CLA     -0.291600
     15 CED        75.9072   52.4998   35.6830 a3         1 CLA      0.005400
     16 CHA        74.6435   56.4941   35.4507 cs         1 CLA     -0.123800
     17 CHB        77.9058   59.1103   37.9353 aa         1 CLA     -0.291900
     18 CHC        74.6514   59.7087   41.6131 aa         1 CLA     -0.090400
     19 CHD        71.4385   57.0791   39.1194 aa         1 CLA     -0.052000
     20 CMA        79.4257   57.1735   36.0081 a3         1 CLA     -0.230700
     21 CMB        79.3524   60.8977   39.8698 a3         1 CLA     -0.180800
     22 CMC        72.2593   58.9900   43.7895 a3         1 CLA     -0.134000
     23 CMD        70.2632   54.9243   37.0192 a3         1 CLA     -0.141100
     24 C1         79.5165   53.5140   33.1020 a2         1 CLA      0.023000
     25 C1A        75.8330   57.2207   35.7104 ac         1 CLA     -0.015100
     26 C1B        77.3237   59.5049   39.1625 cr         1 CLA      0.054700
     27 C1C        73.4388   59.0875   41.2691 cn         1 CLA     -0.005600
     28 C1D        71.9743   56.6722   37.8662 ap         1 CLA     -0.047300
     29 O1A        77.9777   54.8783   31.4024 o2         1 CLA     -0.610800
     30 O1D        76.2404   54.2908   33.7125 o2         1 CLA     -0.558200
     31 C2         79.9813   53.2448   34.4765 c8         1 CLA     -0.325100
     32 C2A        77.0633   57.1260   34.7992 a1         1 CLA      0.098600
     33 C2B        77.9222   60.4507   40.1016 cb         1 CLA      0.088500
     34 C2C        72.3659   58.6705   42.1743 cb         1 CLA      0.053700
     35 C2D        71.5469   55.7320   36.9407 cb         1 CLA      0.058900
     36 O2A        79.4516   55.0055   33.1921 o1         1 CLA     -0.437200
     37 O2D        74.9478   53.5771   35.4315 o1         1 CLA     -0.357600
     38 C3         80.8208   52.2865   34.8503 c5         1 CLA      0.031200
     39 C3A        78.0704   57.9344   35.6640 a1         1 CLA      0.166800
     40 C3B        77.0769   60.4991   41.2250 cb         1 CLA      0.035000
     41 C3C        71.3945   58.0412   41.4222 cb         1 CLA     -0.089900
     42 C3D        72.4854   55.6595   35.8874 cb         1 CLA     -0.035900
     43 C4         80.3524   50.8895   35.1996 a3         1 CLA     -0.053300
     44 C4A        77.3298   58.3518   36.9390 ac         1 CLA      0.001800
     45 C4B        75.8478   59.8019   40.8123 cn         1 CLA     -0.020900
     46 C4C        72.0142   57.9093   40.1494 cr         1 CLA     -0.044400
     47 C4D        73.5081   56.4804   36.3117 c6         1 CLA     -0.046000
     48 C5         82.3021   52.4489   34.6147 a2         1 CLA     -0.070400
     49 C6         82.8724   53.8378   34.7181 a2         1 CLA      0.043900
     50 C7         82.9488   54.1824   36.2307 a2         1 CLA     -0.150000
     51 C8         83.4724   55.6355   36.5004 a1         1 CLA      0.064200
     52 C9         84.8989   55.6782   35.8061 a3         1 CLA     -0.259300
     53 C10        83.4777   55.9449   38.0121 a2         1 CLA     -0.071900
     54 C11        82.1092   55.9814   38.7901 a2         1 CLA      0.014500
     55 C12        82.3326   56.2235   40.3154 a2         1 CLA     -0.112100
     56 C13        80.9985   56.0169   41.2214 a1         1 CLA      0.089200
     57 C14        79.7507   56.8594   40.7196 a3         1 CLA     -0.239100
     58 C15        81.4162   56.3268   42.7261 a2         1 CLA     -0.102200
     59 C16        81.8448   57.6466   43.1228 a2         1 CLA      0.023900
     60 C17        82.1126   57.8201   44.6619 a2         1 CLA     -0.105700
     61 C18        82.8097   59.1365   45.0369 a1         1 CLA      0.206800
     62 C19        84.1189   59.5024   44.4016 a3         1 CLA     -0.280100
     63 C20        81.8255   60.2793   44.8688 a3         1 CLA     -0.280100
     64 NC         73.2362   58.4893   40.1027 nx         1 CLA     -0.309200
     65 MG         74.5795   58.2884   38.4553 mg         1 CLA      0.895000
     66 HMD3       70.3777   54.3541   37.9596 dc         1 CLA      0.064300
     67 HMD2       69.3346   55.4813   36.9481 dc         1 CLA      0.064300
     68 HMD1       70.2043   54.2772   36.1415 dc         1 CLA      0.064300
     69 HMC3       71.8228   59.9721   43.9772 dc         1 CLA      0.052100
     70 HMC2       71.5637   58.2028   44.2099 dc         1 CLA      0.052100
     71 HMC1       73.2246   58.9856   44.2479 dc         1 CLA      0.052100
     72 HMB3       79.6181   61.7117   40.5783 dc         1 CLA      0.063600
     73 HMB2       80.0171   60.0802   40.0651 dc         1 CLA      0.063600
     74 HMB1       79.4997   61.2692   38.8602 dc         1 CLA      0.063600
     75 HMA3       80.0635   57.1321   35.0934 dc         1 CLA      0.058300
     76 HMA2       79.9913   57.6141   36.8539 dc         1 CLA      0.058300
     77 HMA1       79.1558   56.1225   36.1960 dc         1 CLA      0.058300
     78 HED3       76.8546   52.9258   35.8275 dc         1 CLA      0.079300
     79 HED2       75.6539   52.0002   36.6202 dc         1 CLA      0.079300
     80 HED1       75.8584   51.7456   34.8490 dc         1 CLA      0.079300
     81 HBC3       70.9521   55.8707   43.2401 dc         1 CLA      0.016300
     82 HBC2       69.2752   55.6594   42.7203 dc         1 CLA      0.016300
     83 HBC1       70.6032   55.4517   41.5073 dc         1 CLA      0.016300
     84 HBB2       78.6343   61.5745   44.1420 da         1 CLA      0.183000
     85 HBB1       79.2788   60.3465   42.8365 da         1 CLA      0.183000
     86 HBA2       77.9610   57.3909   31.5233 dc         1 CLA      0.029400
     87 HBA1       79.1722   57.4755   33.0204 dc         1 CLA      0.029400
     88 HAC2       69.7245   57.8083   42.8393 dc         1 CLA      0.029300
     89 HAC1       69.3112   57.4075   41.2088 dc         1 CLA      0.029300
     90 HAA2       76.1147   57.0936   32.8870 dc         1 CLA      0.028700
     91 HAA1       77.0583   58.5653   33.2801 dc         1 CLA      0.028700
     92 H203       82.0148   61.1219   45.4955 dc         1 CLA      0.065600
     93 H202       81.6989   60.5159   43.8114 dc         1 CLA      0.065600
     94 H201       80.7880   59.9867   45.0986 dc         1 CLA      0.065600
     95 H193       84.8755   58.7456   44.6844 dc         1 CLA      0.065600
     96 H192       83.9191   59.7361   43.3641 dc         1 CLA      0.065600
     97 H191       84.6062   60.2771   44.9162 dc         1 CLA      0.065600
     98 H172       81.2023   57.6552   45.2161 dc         1 CLA      0.027600
     99 H171       82.6825   56.9420   44.9974 dc         1 CLA      0.027600
    100 H162       82.7428   58.0023   42.5779 dc         1 CLA      0.002900
    101 H161       80.9798   58.3694   42.9066 dc         1 CLA      0.002900
    102 H152       80.6129   56.0996   43.3289 dc         1 CLA      0.029100
    103 H151       82.1885   55.6021   43.0414 dc         1 CLA      0.029100
    104 H143       79.8711   57.8837   40.9985 dc         1 CLA      0.063600
    105 H142       79.5993   56.7170   39.6872 dc         1 CLA      0.063600
    106 H141       78.8200   56.5295   41.2926 dc         1 CLA      0.063600
    107 H122       83.2186   55.5932   40.6820 dc         1 CLA      0.032500
    108 H121       82.7599   57.1877   40.3597 dc         1 CLA      0.032500
    109 H112       81.5254   56.8143   38.3606 dc         1 CLA      0.006600
    110 H111       81.5977   55.0380   38.5411 dc         1 CLA      0.006600
    111 H102       84.0960   55.1477   38.4254 dc         1 CLA      0.024100
    112 H101       83.9940   56.8966   38.0488 dc         1 CLA      0.024100
    113 HHD        70.3652   56.8307   39.3251 da         1 CLA      0.174300
    114 HHC        74.7402   60.0732   42.6225 da         1 CLA      0.136800
    115 HHB        78.9492   59.4740   37.7963 da         1 CLA      0.138300
    116 HBD        74.3658   55.9371   33.3746 dc         1 CLA      0.107700
    117 HAB        76.5691   61.9012   42.9042 da         1 CLA      0.155200
    118 H93        85.6183   55.2624   36.4852 dc         1 CLA      0.069500
    119 H92        85.1322   55.3242   34.8020 dc         1 CLA      0.069500
    120 H91        85.0238   56.7399   35.6238 dc         1 CLA      0.069500
    121 H8         82.6974   56.3281   36.1196 dc         1 CLA      0.029300
    122 H72        81.9152   54.1250   36.4779 dc         1 CLA      0.044400
    123 H71        83.6098   53.5539   36.8114 dc         1 CLA      0.044400
    124 H62        83.8703   53.7750   34.3062 dc         1 CLA      0.015600
    125 H61        82.3224   54.5707   34.0554 dc         1 CLA      0.015600
    126 H52        82.7727   51.6361   35.2756 dc         1 CLA      0.033200
    127 H51        82.5065   52.2046   33.6064 dc         1 CLA      0.033200
    128 H43        80.6863   50.6412   36.1927 dc         1 CLA      0.037000
    129 H42        79.2807   50.7572   35.1640 dc         1 CLA      0.037000
    130 H41        80.8820   50.1681   34.5483 dc         1 CLA      0.037000
    131 H3A        78.3241   58.8590   35.2661 dc         1 CLA      0.041100
    132 H2A        77.3607   56.0676   34.9432 dc         1 CLA      0.083100
    133 H2         79.8091   53.9897   35.2792 da         1 CLA      0.180900
    134 H18        83.0279   58.9356   46.0834 dc         1 CLA     -0.003900
    135 H13        80.8473   54.9331   41.0948 dc         1 CLA      0.019700
    136 H12        78.5650   53.0592   32.8624 dc         1 CLA      0.120400
    137 H11        80.3543   53.2138   32.4656 dc         1 CLA      0.120400
    138 C1         67.5399   61.2365   49.8679 Z1         2 LUT      0.509236
    139 C2         67.5014   62.4114   50.8347 Z2         2 LUT     -0.434695
    140 C3         66.2431   63.2471   50.8723 Z3         2 LUT      0.437453
    141 O3         66.5101   64.5834   51.3930 S1         2 LUT     -0.547129
    142 C4         65.4760   63.3095   49.5971 Z4         2 LUT     -0.468603
    143 C5         66.0505   62.6633   48.3697 Z5         2 LUT      0.279246
    144 C6         67.0673   61.7020   48.4628 Z6         2 LUT     -0.305473
    145 C7         67.9697   61.3421   47.3249 Z7         2 LUT      0.069402
    146 C8         68.7670   62.1071   46.5452 Z8         2 LUT     -0.191631
    147 C9         69.3138   61.7427   45.2420 Z9         2 LUT      0.196698
    148 C10        70.1938   62.6368   44.6953 Y1         2 LUT     -0.208611
    149 C11        70.9257   62.5740   43.4341 Y2         2 LUT      0.030784
    150 C12        72.0620   63.3514   43.1951 Y3         2 LUT     -0.220316
    151 C13        72.9194   63.2248   42.0385 Y4         2 LUT      0.215937
    152 C14        74.0417   64.0169   41.8752 Y5         2 LUT     -0.185793
    153 C15        75.1092   63.9224   40.9332 Y6         2 LUT     -0.057835
    154 C16        66.4339   60.1517   50.2546 Y7         2 LUT     -0.405615
    155 C17        68.8426   60.5640   50.0210 Y7         2 LUT     -0.405615
    156 C18        65.7787   63.3229   47.1015 Y9         2 LUT     -0.369639
    157 C19        68.8803   60.4043   44.6586 W1         2 LUT     -0.333362
    158 C20        72.4317   62.3703   40.9391 W2         2 LUT     -0.323439
    159 C21        86.4036   64.6646   34.5502 Z1         2 LUT      0.406104
    160 C22        87.1281   64.0631   33.2675 Z2         2 LUT     -0.404965
    161 C23        87.3725   65.1074   32.2039 Z3         2 LUT      0.391255
    162 O23        87.9673   64.4717   31.0246 S1         2 LUT     -0.528210
    163 C24        86.1778   65.9581   31.8710 W6         2 LUT     -0.258361
    164 C25        85.1266   66.1305   32.6595 Z5         2 LUT      0.133546
    165 C26        85.0589   65.3429   33.9856 W8         2 LUT     -0.147008
    166 C27        84.1847   65.8837   35.1785 Z7         2 LUT      0.023843
    167 C28        83.3768   65.1604   35.9652 Z8         2 LUT     -0.216987
    168 C29        82.8145   65.6526   37.2359 Z9         2 LUT      0.206524
    169 C30        81.6977   64.9595   37.6450 Y1         2 LUT     -0.215556
    170 C31        80.7983   65.0573   38.8067 Y2         2 LUT      0.025142
    171 C32        79.5152   64.4962   39.0440 Y3         2 LUT     -0.212209
    172 C33        78.6209   64.7862   40.1963 Y4         2 LUT      0.240937
    173 C34        77.3760   64.3083   40.1882 Y5         2 LUT     -0.218862
    174 C35        76.3441   64.5102   41.1188 Y6         2 LUT     -0.023547
    175 C36        87.3669   65.7218   35.2030 Y7         2 LUT     -0.393485
    176 C37        86.2840   63.4400   35.4526 Y7         2 LUT     -0.393485
    177 C38        84.0614   67.1930   32.3690 Y9         2 LUT     -0.387526
    178 C39        83.4459   66.7697   38.0276 W1         2 LUT     -0.322618
    179 C40        79.1005   65.8348   41.1302 W2         2 LUT     -0.358472
    180 H403       80.0117   65.6880   41.6154 R7         2 LUT      0.097720
    181 H402       79.3162   66.7503   40.5896 R7         2 LUT      0.097720
    182 H401       78.4694   66.0607   41.9723 R7         2 LUT      0.097720
    183 H393       83.2440   67.8167   37.6905 R4         2 LUT      0.082505
    184 H392       83.1784   66.8731   39.0623 R4         2 LUT      0.082505
    185 H391       84.5327   66.6619   37.9800 R4         2 LUT      0.082505
    186 H383       83.3586   67.3256   33.2500 R1         2 LUT      0.104030
    187 H382       84.4758   68.0930   31.9930 R1         2 LUT      0.104030
    188 H381       83.5703   66.8065   31.4483 R1         2 LUT      0.104030
    189 H373       85.7870   62.6139   34.9716 T4         2 LUT      0.089537
    190 H372       87.2201   63.0921   35.8427 T4         2 LUT      0.089537
    191 H371       85.7339   63.7052   36.3297 T4         2 LUT      0.089537
    192 H363       88.3392   65.3295   35.4040 T4         2 LUT      0.089537
    193 H362       87.4986   66.5265   34.4900 T4         2 LUT      0.089537
    194 H361       86.9204   66.0980   36.0897 T4         2 LUT      0.089537
    195 H222       87.9940   63.3325   33.5459 U2         2 LUT      0.127376
    196 H221       86.4163   63.3353   32.9384 U2         2 LUT      0.127376
    197 H203       72.0952   61.3917   41.1913 R7         2 LUT      0.087068
    198 H202       71.5252   62.7585   40.5092 R7         2 LUT      0.087068
    199 H201       73.1600   62.3361   40.1110 R7         2 LUT      0.087068
    200 H193       69.2680   59.6413   45.3136 R4         2 LUT      0.089716
    201 H192       67.7911   60.2376   44.7119 R4         2 LUT      0.089716
    202 H191       69.2897   60.2723   43.6461 R4         2 LUT      0.089716
    203 H183       64.7902   63.8388   47.1873 R1         2 LUT      0.094572
    204 H182       66.4254   64.1758   46.9333 R1         2 LUT      0.094572
    205 H181       65.7304   62.5383   46.2863 R1         2 LUT      0.094572
    206 H173       69.7180   61.1008   49.5829 T4         2 LUT      0.093752
    207 H172       69.0975   60.4279   51.1063 T4         2 LUT      0.093752
    208 H171       68.8656   59.5265   49.5772 T4         2 LUT      0.093752
    209 H163       65.3758   60.3914   50.1435 T4         2 LUT      0.093752
    210 H162       66.5705   59.3308   49.5523 T4         2 LUT      0.093752
    211 H161       66.4507   59.8296   51.3058 T4         2 LUT      0.093752
    212 HO3        65.7159   64.8841   51.8457 Q1         2 LUT      0.300121
    213 H8         68.6159   63.1701   46.8258 U7         2 LUT      0.080784
    214 H7         67.7011   60.2975   46.9454 U6         2 LUT      0.042190
    215 H42        64.4943   62.9053   49.6290 U5         2 LUT      0.145166
    216 H41        65.3481   64.3454   49.3910 U5         2 LUT      0.145166
    217 H35        76.5073   65.0045   42.0850 T3         2 LUT      0.077919
    218 H34        77.1456   63.7139   39.3198 T2         2 LUT      0.073626
    219 H32        79.1318   63.9058   38.2468 T1         2 LUT      0.092510
    220 H31        81.2020   65.6320   39.6498 U9         2 LUT      0.070048
    221 H30        81.4579   64.2154   36.9297 U8         2 LUT      0.085442
    222 H3         65.5944   62.5611   51.4855 U3         2 LUT     -0.031596
    223 H28        83.1025   64.1973   35.5686 U7         2 LUT      0.084728
    224 H27        84.4660   66.9059   35.5678 U6         2 LUT      0.087291
    225 H26        84.6142   64.3374   33.6692 Q6         2 LUT      0.075325
    226 H24        86.2143   66.4947   30.8484 Q5         2 LUT      0.094482
    227 H23        88.1857   65.7091   32.5290 U3         2 LUT     -0.024869
    228 H22        67.8116   62.1160   51.8671 U2         2 LUT      0.127376
    229 H21        68.2097   63.1392   50.4038 U2         2 LUT      0.127376
    230 H15        75.0064   63.3644   39.9892 T3         2 LUT      0.093200
    231 H14        74.2439   64.6924   42.7498 T2         2 LUT      0.068865
    232 H12        72.3270   64.1381   43.9262 T1         2 LUT      0.095507
    233 H11        70.6359   61.6749   42.7857 U9         2 LUT      0.068930
    234 H10        70.4836   63.5154   45.2903 U8         2 LUT      0.083911
    235 H1         87.4145   63.9440   30.4308 Q1         2 LUT      0.297311
@<TRIPOS>BOND
    1     6     1 1
    2     7     2 1
    3     8     3 1
    4     9     4 1
    5    11     4 1
    6    12     6 1
    7    13     9 1
    8    16     9 1
    9    25     5 1
   10    25    16 1
   11    26    10 1
   12    26    17 1
   13    27    18 1
   14    28    14 1
   15    28    19 1
   16    29    12 1
   17    30    13 1
   18    31    24 1
   19    32     1 1
   20    32    25 1
   21    33    21 1
   22    33    26 1
   23    34    22 1
   24    34    27 1
   25    35    23 1
   26    35    28 1
   27    36    12 1
   28    36    24 1
   29    37    13 1
   30    37    15 1
   31    38    31 1
   32    39    20 1
   33    39    32 1
   34    40     2 1
   35    40    33 1
   36    41     3 1
   37    41    34 1
   38    42     4 1
   39    42    35 1
   40    43    38 1
   41    44     5 1
   42    44    17 1
   43    44    39 1
   44    45    10 1
   45    45    18 1
   46    45    40 1
   47    46    19 1
   48    46    41 1
   49    47    14 1
   50    47    16 1
   51    47    42 1
   52    48    38 1
   53    49    48 1
   54    50    49 1
   55    51    50 1
   56    52    51 1
   57    53    51 1
   58    54    53 1
   59    55    54 1
   60    56    55 1
   61    57    56 1
   62    58    56 1
   63    59    58 1
   64    60    59 1
   65    61    60 1
   66    62    61 1
   67    63    61 1
   68    64    27 1
   69    64    46 1
   70    65     5 1
   71    65    10 1
   72    65    64 1
   73    65    14 1
   74    66    23 1
   75    67    23 1
   76    68    23 1
   77    69    22 1
   78    70    22 1
   79    71    22 1
   80    72    21 1
   81    73    21 1
   82    74    21 1
   83    75    20 1
   84    76    20 1
   85    77    20 1
   86    78    15 1
   87    79    15 1
   88    80    15 1
   89    81     8 1
   90    82     8 1
   91    83     8 1
   92    84     7 1
   93    85     7 1
   94    86     6 1
   95    87     6 1
   96    88     3 1
   97    89     3 1
   98    90     1 1
   99    91     1 1
  100    92    63 1
  101    93    63 1
  102    94    63 1
  103    95    62 1
  104    96    62 1
  105    97    62 1
  106    98    60 1
  107    99    60 1
  108   100    59 1
  109   101    59 1
  110   102    58 1
  111   103    58 1
  112   104    57 1
  113   105    57 1
  114   106    57 1
  115   107    55 1
  116   108    55 1
  117   109    54 1
  118   110    54 1
  119   111    53 1
  120   112    53 1
  121   113    19 1
  122   114    18 1
  123   115    17 1
  124   116     9 1
  125   117     2 1
  126   118    52 1
  127   119    52 1
  128   120    52 1
  129   121    51 1
  130   122    50 1
  131   123    50 1
  132   124    49 1
  133   125    49 1
  134   126    48 1
  135   127    48 1
  136   128    43 1
  137   129    43 1
  138   130    43 1
  139   131    39 1
  140   132    32 1
  141   133    31 1
  142   134    61 1
  143   135    56 1
  144   136    24 1
  145   137    24 1
  146   139   138 1
  147   140   139 1
  148   141   140 1
  149   142   140 1
  150   143   142 1
  151   144   138 1
  152   144   143 1
  153   145   144 1
  154   146   145 1
  155   147   146 1
  156   148   147 1
  157   149   148 1
  158   150   149 1
  159   151   150 1
  160   152   151 1
  161   153   152 1
  162   154   138 1
  163   155   138 1
  164   156   143 1
  165   157   147 1
  166   158   151 1
  167   160   159 1
  168   161   160 1
  169   162   161 1
  170   163   161 1
  171   164   163 1
  172   165   159 1
  173   165   164 1
  174   166   165 1
  175   167   166 1
  176   168   167 1
  177   169   168 1
  178   170   169 1
  179   171   170 1
  180   172   171 1
  181   173   172 1
  182   174   153 1
  183   174   173 1
  184   175   159 1
  185   176   159 1
  186   177   164 1
  187   178   168 1
  188   179   172 1
  189   180   179 1
  190   181   179 1
  191   182   179 1
  192   183   178 1
  193   184   178 1
  194   185   178 1
  195   186   177 1
  196   187   177 1
  197   188   177 1
  198   189   176 1
  199   190   176 1
  200   191   176 1
  201   192   175 1
  202   193   175 1
  203   194   175 1
  204   195   160 1
  205   196   160 1
  206   197   158 1
  207   198   158 1
  208   199   158 1
  209   200   157 1
  210   201   157 1
  211   202   157 1
  212   203   156 1
  213   204   156 1
  214   205   156 1
  215   206   155 1
  216   207   155 1
  217   208   155 1
  218   209   154 1
  219   210   154 1
  220   211   154 1
  221   212   141 1
  222   213   146 1
  223   214   145 1
  224   215   142 1
  225   216   142 1
  226   217   174 1
  227   218   173 1
  228   219   171 1
  229   220   170 1
  230   221   169 1
  231   222   140 1
  232   223   167 1
  233   224   166 1
  234   225   165 1
  235   226   163 1
  236   227   161 1
  237   228   139 1
  238   229   139 1
  239   230   153 1
  240   231   152 1
  241   232   150 1
  242   233   149 1
  243   234   148 1
  244   235   162 1
  245   65    153 1
  246   65    174 1
@<TRIPOS>SUBSTRUCTURE
      1 CLA               1 ****               0 ****  **** 
      2 LUT             138 ****               0 ****  **** 
