@<TRIPOS>MOLECULE
Cpptraj generated mol2 file.
  235   246     2     0     0
SMALL
USER_CHARGES


@<TRIPOS>ATOM
      1 CAA        77.5222   58.3007   33.8694 a2         1 CLA     -0.055900
      2 CAB        77.1465   61.0582   43.4329 c8         1 CLA     -0.148500
      3 CAC        70.3003   56.9382   42.0933 a2         1 CLA     -0.012600
      4 CAD        73.2970   55.8505   34.7573 ck         1 CLA      0.398800
      5 NA         76.3553   58.5910   37.3240 ns         1 CLA     -0.225500
      6 CBA        78.7982   58.2110   32.9256 a2         1 CLA     -0.135000
      7 CBB        78.2307   61.2107   44.2036 c0         1 CLA     -0.395200
      8 CBC        70.2206   55.4302   41.6527 a3         1 CLA     -0.037700
      9 CBD        74.6544   56.5138   34.5058 a1         1 CLA     -0.053900
     10 NB         76.0392   59.7099   40.1533 nm         1 CLA     -0.295700
     11 OBD        72.6847   55.1431   33.9734 o2         1 CLA     -0.494600
     12 CGA        79.3099   56.7698   32.5615 c4         1 CLA      0.827000
     13 CGD        75.6259   55.3736   34.0550 c4         1 CLA      0.655300
     14 ND         73.5720   57.6710   37.8042 nm         1 CLA     -0.291600
     15 CED        76.5676   53.1536   34.5022 a3         1 CLA      0.005400
     16 CHA        75.0646   57.3213   35.7853 cs         1 CLA     -0.123800
     17 CHB        77.9883   59.8797   38.5732 aa         1 CLA     -0.291900
     18 CHC        74.7388   59.4851   42.2606 aa         1 CLA     -0.090400
     19 CHD        71.7182   57.2438   39.3436 aa         1 CLA     -0.052000
     20 CMA        79.8153   58.2504   36.7094 a3         1 CLA     -0.230700
     21 CMB        79.2781   61.3423   41.0015 a3         1 CLA     -0.180800
     22 CMC        72.4620   58.3823   44.1791 a3         1 CLA     -0.134000
     23 CMD        70.5109   55.5210   36.9358 a3         1 CLA     -0.141100
     24 C1         80.1819   54.6963   33.4105 a2         1 CLA      0.023000
     25 C1A        76.2547   57.9876   36.1520 ac         1 CLA     -0.015100
     26 C1B        77.3339   60.1085   39.8248 cr         1 CLA      0.054700
     27 C1C        73.6653   58.7037   41.8838 cn         1 CLA     -0.005600
     28 C1D        72.3366   57.0998   38.1223 ap         1 CLA     -0.047300
     29 O1A        79.3314   56.2853   31.4671 o2         1 CLA     -0.610800
     30 O1D        76.1079   55.2663   32.9260 o2         1 CLA     -0.558200
     31 C2         80.4613   54.1470   34.7868 c8         1 CLA     -0.325100
     32 C2A        77.6263   57.9241   35.4152 a1         1 CLA      0.098600
     33 C2B        77.8874   60.7995   40.9925 cb         1 CLA      0.088500
     34 C2C        72.5672   58.1811   42.7136 cb         1 CLA      0.053700
     35 C2D        71.8014   56.2879   37.0035 cb         1 CLA      0.058900
     36 O2A        79.6485   56.0520   33.6566 o1         1 CLA     -0.437200
     37 O2D        75.8157   54.3491   35.0026 o1         1 CLA     -0.357600
     38 C3         81.1002   52.9960   34.9973 c5         1 CLA      0.031200
     39 C3A        78.4701   58.8809   36.2358 a1         1 CLA      0.166800
     40 C3B        76.9743   60.7237   42.0393 cb         1 CLA      0.035000
     41 C3C        71.6219   57.6167   41.8283 cb         1 CLA     -0.089900
     42 C3D        72.8596   56.3748   36.0467 cb         1 CLA     -0.035900
     43 C4         80.3952   51.6090   35.3383 a3         1 CLA     -0.053300
     44 C4A        77.5219   59.1424   37.4303 ac         1 CLA      0.001800
     45 C4B        75.8451   59.9511   41.5456 cn         1 CLA     -0.020900
     46 C4C        72.2450   57.7128   40.5100 cr         1 CLA     -0.044400
     47 C4D        73.8715   57.2191   36.5765 c6         1 CLA     -0.046000
     48 C5         82.5432   52.8309   35.1052 a2         1 CLA     -0.070400
     49 C6         83.5001   54.1084   35.1976 a2         1 CLA      0.043900
     50 C7         83.6448   54.6425   36.6461 a2         1 CLA     -0.150000
     51 C8         84.4024   55.9991   36.8681 a1         1 CLA      0.064200
     52 C9         85.8784   56.0068   36.2608 a3         1 CLA     -0.259300
     53 C10        84.5389   56.1900   38.4948 a2         1 CLA     -0.071900
     54 C11        83.1794   56.1881   39.2029 a2         1 CLA      0.014500
     55 C12        83.3628   56.6695   40.6468 a2         1 CLA     -0.112100
     56 C13        82.0595   56.6992   41.4915 a1         1 CLA      0.089200
     57 C14        80.8252   57.3442   40.7877 a3         1 CLA     -0.239100
     58 C15        82.2582   57.1952   42.8719 a2         1 CLA     -0.102200
     59 C16        82.5756   58.7155   43.0050 a2         1 CLA      0.023900
     60 C17        82.8294   59.0454   44.4340 a2         1 CLA     -0.105700
     61 C18        82.9893   60.5427   44.7752 a1         1 CLA      0.206800
     62 C19        84.1106   61.1204   43.8315 a3         1 CLA     -0.280100
     63 C20        81.7088   61.4055   44.7521 a3         1 CLA     -0.280100
     64 NC         73.4606   58.4048   40.5373 nx         1 CLA     -0.309200
     65 MG         74.7845   58.6702   38.9088 mg         1 CLA      0.895000
     66 HMD3       70.4902   54.6494   36.2601 dc         1 CLA      0.064300
     67 HMD2       70.3013   55.2177   37.9549 dc         1 CLA      0.064300
     68 HMD1       69.8579   56.3263   36.6412 dc         1 CLA      0.064300
     69 HMC3       72.4389   59.4317   44.4261 dc         1 CLA      0.052100
     70 HMC2       71.6225   57.8206   44.6575 dc         1 CLA      0.052100
     71 HMC1       73.3683   57.8966   44.5125 dc         1 CLA      0.052100
     72 HMB3       79.3765   61.9646   41.9358 dc         1 CLA      0.063600
     73 HMB2       79.9148   60.4462   41.1803 dc         1 CLA      0.063600
     74 HMB1       79.5762   61.8791   40.0956 dc         1 CLA      0.063600
     75 HMA3       79.7837   57.2316   37.1114 dc         1 CLA      0.058300
     76 HMA2       80.5552   58.2106   35.9606 dc         1 CLA      0.058300
     77 HMA1       80.2284   58.9474   37.4517 dc         1 CLA      0.058300
     78 HED3       75.7754   52.5408   34.0345 dc         1 CLA      0.079300
     79 HED2       77.2423   53.4737   33.6274 dc         1 CLA      0.079300
     80 HED1       76.8847   52.5312   35.2940 dc         1 CLA      0.079300
     81 HBC3       71.2038   54.9029   41.7143 dc         1 CLA      0.016300
     82 HBC2       69.4942   54.9412   42.2654 dc         1 CLA      0.016300
     83 HBC1       69.9357   55.3062   40.5785 dc         1 CLA      0.016300
     84 HBB2       78.1762   61.7392   45.2223 da         1 CLA      0.183000
     85 HBB1       79.2213   61.0601   43.7990 da         1 CLA      0.183000
     86 HBA2       78.3909   58.6464   32.0263 dc         1 CLA      0.029400
     87 HBA1       79.6104   58.8233   33.2979 dc         1 CLA      0.029400
     88 HAC2       70.0895   57.0190   43.1288 dc         1 CLA      0.029300
     89 HAC1       69.5017   57.3875   41.4603 dc         1 CLA      0.029300
     90 HAA2       76.7776   57.6270   33.4656 dc         1 CLA      0.028700
     91 HAA1       77.0743   59.2644   33.8307 dc         1 CLA      0.028700
     92 H203       81.9139   62.3478   45.1448 dc         1 CLA      0.065600
     93 H202       81.5491   61.5999   43.6899 dc         1 CLA      0.065600
     94 H201       80.8905   60.9030   45.2613 dc         1 CLA      0.065600
     95 H193       83.6695   61.0852   42.8322 dc         1 CLA      0.065600
     96 H192       84.3249   62.1425   44.1314 dc         1 CLA      0.065600
     97 H191       85.0861   60.5067   43.9311 dc         1 CLA      0.065600
     98 H172       81.9596   58.6034   44.9253 dc         1 CLA      0.027600
     99 H171       83.6827   58.4041   44.8566 dc         1 CLA      0.027600
    100 H162       83.4616   58.8557   42.4068 dc         1 CLA      0.002900
    101 H161       81.7577   59.3894   42.7464 dc         1 CLA      0.002900
    102 H152       81.3619   56.9134   43.2958 dc         1 CLA      0.029100
    103 H151       83.0199   56.5668   43.3575 dc         1 CLA      0.029100
    104 H143       80.0062   57.5544   41.4997 dc         1 CLA      0.063600
    105 H142       81.1316   58.3274   40.3338 dc         1 CLA      0.063600
    106 H141       80.4465   56.7231   39.9289 dc         1 CLA      0.063600
    107 H122       84.0974   55.9074   41.1385 dc         1 CLA      0.032500
    108 H121       83.8536   57.7182   40.5574 dc         1 CLA      0.032500
    109 H112       82.4754   56.8288   38.7273 dc         1 CLA      0.006600
    110 H111       82.7432   55.1920   39.1273 dc         1 CLA      0.006600
    111 H102       85.2705   55.4191   38.8798 dc         1 CLA      0.024100
    112 H101       84.9619   57.2248   38.5233 dc         1 CLA      0.024100
    113 HHD        70.7664   56.7994   39.5093 da         1 CLA      0.174300
    114 HHC        74.7246   59.7397   43.3375 da         1 CLA      0.136800
    115 HHB        78.9666   60.3172   38.3488 da         1 CLA      0.138300
    116 HBD        74.5784   57.2227   33.7166 dc         1 CLA      0.107700
    117 HAB        76.2177   61.5848   43.7263 da         1 CLA      0.155200
    118 H93        86.3742   56.9433   36.7097 dc         1 CLA      0.069500
    119 H92        86.3887   55.0804   36.4916 dc         1 CLA      0.069500
    120 H91        85.6648   56.1778   35.2252 dc         1 CLA      0.069500
    121 H8         83.7971   56.9142   36.4264 dc         1 CLA      0.029300
    122 H72        82.6125   54.7829   36.9170 dc         1 CLA      0.044400
    123 H71        83.9837   53.9706   37.3627 dc         1 CLA      0.044400
    124 H62        84.4351   53.5980   34.7672 dc         1 CLA      0.015600
    125 H61        83.2937   54.9249   34.4591 dc         1 CLA      0.015600
    126 H52        82.8563   52.1634   35.9817 dc         1 CLA      0.033200
    127 H51        82.8735   52.2376   34.2914 dc         1 CLA      0.033200
    128 H43        80.9161   50.7241   34.9124 dc         1 CLA      0.037000
    129 H42        80.3800   51.4992   36.4273 dc         1 CLA      0.037000
    130 H41        79.3055   51.6482   35.0707 dc         1 CLA      0.037000
    131 H3A        78.6788   59.8463   35.7674 dc         1 CLA      0.041100
    132 H2A        77.9340   56.8614   35.4473 dc         1 CLA      0.083100
    133 H2         80.1314   54.7420   35.5920 da         1 CLA      0.180900
    134 H18        83.3950   60.6684   45.8090 dc         1 CLA     -0.003900
    135 H13        81.8104   55.6819   41.6295 dc         1 CLA      0.019700
    136 H12        79.5361   54.1067   32.7663 dc         1 CLA      0.120400
    137 H11        81.1188   54.7881   32.8104 dc         1 CLA      0.120400
    138 C1         66.7760   61.5286   49.5117 Z1         2 LUT      0.509236
    139 C2         66.9488   62.8529   50.2572 Z2         2 LUT     -0.434695
    140 C3         65.7465   63.7562   50.2283 Z3         2 LUT      0.437453
    141 O3         66.1172   65.1180   50.7013 S1         2 LUT     -0.547129
    142 C4         65.0225   63.7028   48.9095 Z4         2 LUT     -0.468603
    143 C5         65.6165   62.8808   47.7694 Z5         2 LUT      0.279246
    144 C6         66.3998   61.7950   48.0824 Z6         2 LUT     -0.305473
    145 C7         67.3647   61.1807   47.1159 Z7         2 LUT      0.069402
    146 C8         68.3392   61.6881   46.3000 Z8         2 LUT     -0.191631
    147 C9         69.2378   61.0985   45.3719 Z9         2 LUT      0.196698
    148 C10        70.0930   61.9014   44.6447 Y1         2 LUT     -0.208611
    149 C11        70.8358   61.6278   43.5385 Y2         2 LUT      0.030784
    150 C12        71.8457   62.4701   43.0970 Y3         2 LUT     -0.220316
    151 C13        72.7979   62.4611   41.9854 Y4         2 LUT      0.215937
    152 C14        73.9102   63.2944   41.8827 Y5         2 LUT     -0.185793
    153 C15        74.9548   63.2037   40.9195 Y6         2 LUT     -0.057835
    154 C16        65.6651   60.7256   50.3514 Y7         2 LUT     -0.405615
    155 C17        68.1002   60.7370   49.7273 Y7         2 LUT     -0.405615
    156 C18        65.6018   63.5921   46.4134 Y9         2 LUT     -0.369639
    157 C19        69.0026   59.6290   44.9743 W1         2 LUT     -0.333362
    158 C20        72.1063   61.8004   40.7915 W2         2 LUT     -0.323439
    159 C21        85.9686   64.6534   34.6203 Z1         2 LUT      0.406104
    160 C22        86.5010   63.8228   33.4425 Z2         2 LUT     -0.404965
    161 C23        86.3354   64.4585   32.0622 Z3         2 LUT      0.391255
    162 O23        86.4386   63.4350   31.0445 S1         2 LUT     -0.528210
    163 C24        85.1392   65.2808   31.9673 W6         2 LUT     -0.258361
    164 C25        84.2882   65.6117   32.9329 Z5         2 LUT      0.133546
    165 C26        84.4912   65.0938   34.3034 W8         2 LUT     -0.147008
    166 C27        83.8304   65.8045   35.3693 Z7         2 LUT      0.023843
    167 C28        82.8122   65.2624   36.0985 Z8         2 LUT     -0.216987
    168 C29        82.0688   65.8892   37.2089 Z9         2 LUT      0.206524
    169 C30        80.9061   65.3121   37.5257 Y1         2 LUT     -0.215556
    170 C31        80.0049   65.5094   38.6064 Y2         2 LUT      0.025142
    171 C32        79.0519   64.5877   38.9062 Y3         2 LUT     -0.212209
    172 C33        78.2678   64.6145   40.0990 Y4         2 LUT      0.240937
    173 C34        77.0940   63.8695   40.0533 Y5         2 LUT     -0.218862
    174 C35        76.0897   63.8937   41.1085 Y6         2 LUT     -0.023547
    175 C36        86.8605   65.9356   34.7870 Y7         2 LUT     -0.393485
    176 C37        86.1847   63.6665   35.8160 Y7         2 LUT     -0.393485
    177 C38        82.9851   66.3701   32.6562 Y9         2 LUT     -0.387526
    178 C39        82.6740   66.9903   37.9375 W1         2 LUT     -0.322618
    179 C40        78.8429   65.2649   41.3640 W2         2 LUT     -0.358472
    180 H403       79.9116   65.5627   41.3104 R7         2 LUT      0.097720
    181 H402       78.2423   66.1668   41.4280 R7         2 LUT      0.097720
    182 H401       78.7360   64.6397   42.2569 R7         2 LUT      0.097720
    183 H393       82.0501   67.4817   38.7042 R4         2 LUT      0.082505
    184 H392       83.4622   66.5632   38.5319 R4         2 LUT      0.082505
    185 H391       83.1215   67.7867   37.2777 R4         2 LUT      0.082505
    186 H383       83.0589   66.7112   31.6174 R1         2 LUT      0.104030
    187 H382       82.1109   65.6964   32.8517 R1         2 LUT      0.104030
    188 H381       82.9257   67.3170   33.2068 R1         2 LUT      0.104030
    189 H373       86.0630   64.2193   36.7832 T4         2 LUT      0.089537
    190 H372       85.6075   62.7685   35.9114 T4         2 LUT      0.089537
    191 H371       87.2153   63.2968   35.9425 T4         2 LUT      0.089537
    192 H363       86.8444   66.5663   33.8576 T4         2 LUT      0.089537
    193 H362       86.7057   66.5590   35.7257 T4         2 LUT      0.089537
    194 H361       87.9022   65.6979   34.9478 T4         2 LUT      0.089537
    195 H222       87.5770   63.5756   33.5051 U2         2 LUT      0.127376
    196 H221       85.8439   62.9721   33.2939 U2         2 LUT      0.127376
    197 H203       72.7696   61.9489   39.9510 R7         2 LUT      0.087068
    198 H202       71.9133   60.7454   40.8741 R7         2 LUT      0.087068
    199 H201       71.1994   62.2565   40.5344 R7         2 LUT      0.087068
    200 H193       68.8041   58.9398   45.7833 R4         2 LUT      0.089716
    201 H192       68.2295   59.4104   44.2949 R4         2 LUT      0.089716
    202 H191       69.7951   59.1887   44.4425 R4         2 LUT      0.089716
    203 H183       66.5045   64.2218   46.2596 R1         2 LUT      0.094572
    204 H182       65.6663   62.8364   45.6044 R1         2 LUT      0.094572
    205 H181       64.8743   64.3988   46.2691 R1         2 LUT      0.094572
    206 H173       68.9530   61.3507   49.3108 T4         2 LUT      0.093752
    207 H172       68.4619   60.6035   50.7532 T4         2 LUT      0.093752
    208 H171       68.1087   59.7700   49.1866 T4         2 LUT      0.093752
    209 H163       65.7603   60.8785   51.4723 T4         2 LUT      0.093752
    210 H162       64.6891   61.0525   50.1645 T4         2 LUT      0.093752
    211 H161       65.6258   59.6618   50.0126 T4         2 LUT      0.093752
    212 HO3        65.4827   65.5209   51.3653 Q1         2 LUT      0.300121
    213 H8         68.4072   62.7534   46.3561 U7         2 LUT      0.080784
    214 H7         67.3917   60.0800   47.2494 U6         2 LUT      0.042190
    215 H42        64.0675   63.3127   49.1201 U5         2 LUT      0.145166
    216 H41        64.5629   64.6557   48.5760 U5         2 LUT      0.145166
    217 H35        76.1730   64.4878   42.0211 T3         2 LUT      0.077919
    218 H34        76.8322   63.4702   39.0760 T2         2 LUT      0.073626
    219 H32        78.8851   63.8989   38.1726 T1         2 LUT      0.092510
    220 H31        80.3235   66.2496   39.3108 U9         2 LUT      0.070048
    221 H30        80.6702   64.3937   37.0401 U8         2 LUT      0.085442
    222 H3         65.0009   63.3129   50.8891 U3         2 LUT     -0.031596
    223 H28        82.4435   64.4428   35.5510 U7         2 LUT      0.084728
    224 H27        84.2429   66.8134   35.7446 U6         2 LUT      0.087291
    225 H26        83.9665   64.1248   34.1485 Q6         2 LUT      0.075325
    226 H24        84.9182   65.6512   31.0034 Q5         2 LUT      0.094482
    227 H23        87.1509   65.1496   31.8273 U3         2 LUT     -0.024869
    228 H22        66.9832   62.6761   51.3501 U2         2 LUT      0.127376
    229 H21        67.7402   63.4407   49.7688 U2         2 LUT      0.127376
    230 H15        74.8856   62.5845   40.0229 T3         2 LUT      0.093200
    231 H14        73.9155   63.9967   42.7599 T2         2 LUT      0.068865
    232 H12        71.8434   63.2729   43.8649 T1         2 LUT      0.095507
    233 H11        70.6689   60.7268   42.9767 U9         2 LUT      0.068930
    234 H10        70.1651   62.9934   45.0002 U8         2 LUT      0.083911
    235 H1         86.7774   63.7584   30.2454 Q1         2 LUT      0.297311
@<TRIPOS>BOND
    1     6     1 1
    2     7     2 1
    3     8     3 1
    4     9     4 1
    5    11     4 1
    6    12     6 1
    7    13     9 1
    8    16     9 1
    9    25     5 1
   10    25    16 1
   11    26    10 1
   12    26    17 1
   13    27    18 1
   14    28    14 1
   15    28    19 1
   16    29    12 1
   17    30    13 1
   18    31    24 1
   19    32     1 1
   20    32    25 1
   21    33    21 1
   22    33    26 1
   23    34    22 1
   24    34    27 1
   25    35    23 1
   26    35    28 1
   27    36    12 1
   28    36    24 1
   29    37    13 1
   30    37    15 1
   31    38    31 1
   32    39    20 1
   33    39    32 1
   34    40     2 1
   35    40    33 1
   36    41     3 1
   37    41    34 1
   38    42     4 1
   39    42    35 1
   40    43    38 1
   41    44     5 1
   42    44    17 1
   43    44    39 1
   44    45    10 1
   45    45    18 1
   46    45    40 1
   47    46    19 1
   48    46    41 1
   49    47    14 1
   50    47    16 1
   51    47    42 1
   52    48    38 1
   53    49    48 1
   54    50    49 1
   55    51    50 1
   56    52    51 1
   57    53    51 1
   58    54    53 1
   59    55    54 1
   60    56    55 1
   61    57    56 1
   62    58    56 1
   63    59    58 1
   64    60    59 1
   65    61    60 1
   66    62    61 1
   67    63    61 1
   68    64    27 1
   69    64    46 1
   70    65     5 1
   71    65    10 1
   72    65    64 1
   73    65    14 1
   74    66    23 1
   75    67    23 1
   76    68    23 1
   77    69    22 1
   78    70    22 1
   79    71    22 1
   80    72    21 1
   81    73    21 1
   82    74    21 1
   83    75    20 1
   84    76    20 1
   85    77    20 1
   86    78    15 1
   87    79    15 1
   88    80    15 1
   89    81     8 1
   90    82     8 1
   91    83     8 1
   92    84     7 1
   93    85     7 1
   94    86     6 1
   95    87     6 1
   96    88     3 1
   97    89     3 1
   98    90     1 1
   99    91     1 1
  100    92    63 1
  101    93    63 1
  102    94    63 1
  103    95    62 1
  104    96    62 1
  105    97    62 1
  106    98    60 1
  107    99    60 1
  108   100    59 1
  109   101    59 1
  110   102    58 1
  111   103    58 1
  112   104    57 1
  113   105    57 1
  114   106    57 1
  115   107    55 1
  116   108    55 1
  117   109    54 1
  118   110    54 1
  119   111    53 1
  120   112    53 1
  121   113    19 1
  122   114    18 1
  123   115    17 1
  124   116     9 1
  125   117     2 1
  126   118    52 1
  127   119    52 1
  128   120    52 1
  129   121    51 1
  130   122    50 1
  131   123    50 1
  132   124    49 1
  133   125    49 1
  134   126    48 1
  135   127    48 1
  136   128    43 1
  137   129    43 1
  138   130    43 1
  139   131    39 1
  140   132    32 1
  141   133    31 1
  142   134    61 1
  143   135    56 1
  144   136    24 1
  145   137    24 1
  146   139   138 1
  147   140   139 1
  148   141   140 1
  149   142   140 1
  150   143   142 1
  151   144   138 1
  152   144   143 1
  153   145   144 1
  154   146   145 1
  155   147   146 1
  156   148   147 1
  157   149   148 1
  158   150   149 1
  159   151   150 1
  160   152   151 1
  161   153   152 1
  162   154   138 1
  163   155   138 1
  164   156   143 1
  165   157   147 1
  166   158   151 1
  167   160   159 1
  168   161   160 1
  169   162   161 1
  170   163   161 1
  171   164   163 1
  172   165   159 1
  173   165   164 1
  174   166   165 1
  175   167   166 1
  176   168   167 1
  177   169   168 1
  178   170   169 1
  179   171   170 1
  180   172   171 1
  181   173   172 1
  182   174   153 1
  183   174   173 1
  184   175   159 1
  185   176   159 1
  186   177   164 1
  187   178   168 1
  188   179   172 1
  189   180   179 1
  190   181   179 1
  191   182   179 1
  192   183   178 1
  193   184   178 1
  194   185   178 1
  195   186   177 1
  196   187   177 1
  197   188   177 1
  198   189   176 1
  199   190   176 1
  200   191   176 1
  201   192   175 1
  202   193   175 1
  203   194   175 1
  204   195   160 1
  205   196   160 1
  206   197   158 1
  207   198   158 1
  208   199   158 1
  209   200   157 1
  210   201   157 1
  211   202   157 1
  212   203   156 1
  213   204   156 1
  214   205   156 1
  215   206   155 1
  216   207   155 1
  217   208   155 1
  218   209   154 1
  219   210   154 1
  220   211   154 1
  221   212   141 1
  222   213   146 1
  223   214   145 1
  224   215   142 1
  225   216   142 1
  226   217   174 1
  227   218   173 1
  228   219   171 1
  229   220   170 1
  230   221   169 1
  231   222   140 1
  232   223   167 1
  233   224   166 1
  234   225   165 1
  235   226   163 1
  236   227   161 1
  237   228   139 1
  238   229   139 1
  239   230   153 1
  240   231   152 1
  241   232   150 1
  242   233   149 1
  243   234   148 1
  244   235   162 1
  245   65    153 1
  246   65    174 1
@<TRIPOS>SUBSTRUCTURE
      1 CLA               1 ****               0 ****  **** 
      2 LUT             138 ****               0 ****  **** 
