@<TRIPOS>MOLECULE
Cpptraj generated mol2 file.
  235   246     2     0     0
SMALL
USER_CHARGES


@<TRIPOS>ATOM
      1 CAA        80.0220   58.7064   34.4995 a2         1 CLA     -0.055900
      2 CAB        79.7676   62.6023   43.4117 c8         1 CLA     -0.148500
      3 CAC        73.1423   57.9839   43.0361 a2         1 CLA     -0.012600
      4 CAD        75.5062   56.2771   35.3533 ck         1 CLA      0.398800
      5 NA         78.8303   58.9824   37.8415 ns         1 CLA     -0.225500
      6 CBA        81.3837   58.3873   33.7857 a2         1 CLA     -0.135000
      7 CBB        80.8601   63.2560   43.9403 c0         1 CLA     -0.395200
      8 CBC        73.6330   56.7801   43.8446 a3         1 CLA     -0.037700
      9 CBD        77.0749   56.7299   35.1027 a1         1 CLA     -0.053900
     10 NB         78.7523   60.4266   40.5171 nm         1 CLA     -0.295700
     11 OBD        74.8179   55.6741   34.5410 o2         1 CLA     -0.494600
     12 CGA        81.7375   56.8829   33.4141 c4         1 CLA      0.827000
     13 CGD        78.0119   55.6005   34.8154 c4         1 CLA      0.655300
     14 ND         76.0290   58.1099   38.3858 nm         1 CLA     -0.291600
     15 CED        78.7046   53.3227   35.3403 a3         1 CLA      0.005400
     16 CHA        77.4496   57.6423   36.3243 cs         1 CLA     -0.123800
     17 CHB        80.5529   60.4897   38.8305 aa         1 CLA     -0.291900
     18 CHC        77.4396   60.6320   42.5267 aa         1 CLA     -0.090400
     19 CHD        74.3048   57.8464   40.0584 aa         1 CLA     -0.052000
     20 CMA        82.1382   58.1478   37.4014 a3         1 CLA     -0.230700
     21 CMB        81.8695   62.4527   40.7832 a3         1 CLA     -0.180800
     22 CMC        75.1255   59.9648   44.4853 a3         1 CLA     -0.134000
     23 CMD        72.7895   56.4427   37.7421 a3         1 CLA     -0.141100
     24 C1         82.6530   54.9042   34.2285 a2         1 CLA      0.023000
     25 C1A        78.6533   58.3552   36.6358 ac         1 CLA     -0.015100
     26 C1B        79.9544   60.9333   40.0406 cr         1 CLA      0.054700
     27 C1C        76.2950   59.9436   42.1948 cn         1 CLA     -0.005600
     28 C1D        74.7971   57.6477   38.7352 ap         1 CLA     -0.047300
     29 O1A        81.7311   56.4240   32.2837 o2         1 CLA     -0.610800
     30 O1D        78.7988   55.5880   33.9072 o2         1 CLA     -0.558200
     31 C2         83.3035   54.3051   35.4227 c8         1 CLA     -0.325100
     32 C2A        79.9925   58.1707   35.9397 a1         1 CLA      0.098600
     33 C2B        80.5396   61.7756   41.0295 cb         1 CLA      0.088500
     34 C2C        75.1536   59.6278   43.0566 cb         1 CLA      0.053700
     35 C2D        74.1600   56.9918   37.6065 cb         1 CLA      0.058900
     36 O2A        82.0743   56.1996   34.5559 o1         1 CLA     -0.437200
     37 O2D        77.8793   54.5398   35.7059 o1         1 CLA     -0.357600
     38 C3         84.4822   53.7374   35.5363 c5         1 CLA      0.031200
     39 C3A        80.9711   58.9187   36.8276 a1         1 CLA      0.166800
     40 C3B        79.6643   61.8055   42.1514 cb         1 CLA      0.035000
     41 C3C        74.3377   58.7085   42.4158 cb         1 CLA     -0.089900
     42 C3D        75.1712   56.8364   36.6168 cb         1 CLA     -0.035900
     43 C4         84.6479   52.2406   35.3716 a3         1 CLA     -0.053300
     44 C4A        80.0945   59.4769   37.9520 ac         1 CLA      0.001800
     45 C4B        78.5746   60.8698   41.7819 cn         1 CLA     -0.020900
     46 C4C        74.9001   58.5832   41.1078 cr         1 CLA     -0.044400
     47 C4D        76.2943   57.5856   37.1715 c6         1 CLA     -0.046000
     48 C5         85.7342   54.5676   35.5783 a2         1 CLA     -0.070400
     49 C6         85.8113   55.6935   36.6320 a2         1 CLA      0.043900
     50 C7         86.9030   55.4656   37.7722 a2         1 CLA     -0.150000
     51 C8         87.0413   56.5863   38.8318 a1         1 CLA      0.064200
     52 C9         87.8834   57.7809   38.2218 a3         1 CLA     -0.259300
     53 C10        87.5814   56.0428   40.2248 a2         1 CLA     -0.071900
     54 C11        87.5621   57.1156   41.3607 a2         1 CLA      0.014500
     55 C12        87.6990   56.5027   42.7774 a2         1 CLA     -0.112100
     56 C13        87.8147   57.4970   44.0258 a1         1 CLA      0.089200
     57 C14        89.1132   58.2859   44.1266 a3         1 CLA     -0.239100
     58 C15        87.6176   56.7500   45.3498 a2         1 CLA     -0.102200
     59 C16        87.2357   57.5638   46.5683 a2         1 CLA      0.023900
     60 C17        85.7222   57.3666   46.9315 a2         1 CLA     -0.105700
     61 C18        85.0529   58.4228   47.8621 a1         1 CLA      0.206800
     62 C19        83.5787   58.0494   48.0146 a3         1 CLA     -0.280100
     63 C20        85.6517   58.5690   49.2564 a3         1 CLA     -0.280100
     64 NC         76.0654   59.3078   41.0179 nx         1 CLA     -0.309200
     65 MG         77.2914   59.3669   39.3424 mg         1 CLA      0.895000
     66 HMD3       72.0237   57.2861   37.8609 dc         1 CLA      0.064300
     67 HMD2       72.6017   55.7533   36.8939 dc         1 CLA      0.064300
     68 HMD1       72.6659   55.8313   38.6391 dc         1 CLA      0.064300
     69 HMC3       75.8013   60.7530   44.8474 dc         1 CLA      0.052100
     70 HMC2       74.1054   60.1493   44.8676 dc         1 CLA      0.052100
     71 HMC1       75.4198   58.9626   44.9562 dc         1 CLA      0.052100
     72 HMB3       81.8147   63.4085   41.3608 dc         1 CLA      0.063600
     73 HMB2       82.7404   61.8471   41.2196 dc         1 CLA      0.063600
     74 HMB1       82.0943   62.7553   39.7574 dc         1 CLA      0.063600
     75 HMA3       81.8287   57.4635   38.2321 dc         1 CLA      0.058300
     76 HMA2       82.6940   57.6818   36.5707 dc         1 CLA      0.058300
     77 HMA1       82.6848   58.8294   37.9941 dc         1 CLA      0.058300
     78 HED3       79.7389   53.5294   35.4325 dc         1 CLA      0.079300
     79 HED2       78.3474   52.4373   35.9283 dc         1 CLA      0.079300
     80 HED1       78.4052   53.1663   34.3148 dc         1 CLA      0.079300
     81 HBC3       74.3932   56.2559   43.3216 dc         1 CLA      0.016300
     82 HBC2       74.0156   57.2116   44.7811 dc         1 CLA      0.016300
     83 HBC1       72.6608   56.1873   43.9860 dc         1 CLA      0.016300
     84 HBB2       80.9089   63.7101   44.9075 da         1 CLA      0.183000
     85 HBB1       81.8458   63.1240   43.4231 da         1 CLA      0.183000
     86 HBA2       81.3259   58.8865   32.8155 dc         1 CLA      0.029400
     87 HBA1       82.2925   58.8021   34.3547 dc         1 CLA      0.029400
     88 HAC2       72.5538   58.6933   43.5992 dc         1 CLA      0.029300
     89 HAC1       72.3957   57.5355   42.2913 dc         1 CLA      0.029300
     90 HAA2       79.2769   58.1639   33.8998 dc         1 CLA      0.028700
     91 HAA1       79.9805   59.8045   34.4189 dc         1 CLA      0.028700
     92 H203       85.1395   59.3904   49.7912 dc         1 CLA      0.065600
     93 H202       85.6263   57.6623   49.7220 dc         1 CLA      0.065600
     94 H201       86.7004   58.8701   49.0848 dc         1 CLA      0.065600
     95 H193       83.1541   58.1088   47.0103 dc         1 CLA      0.065600
     96 H192       83.4636   57.0030   48.4061 dc         1 CLA      0.065600
     97 H191       82.9817   58.7397   48.6606 dc         1 CLA      0.065600
     98 H172       85.2786   57.5050   45.9635 dc         1 CLA      0.027600
     99 H171       85.5542   56.3861   47.2537 dc         1 CLA      0.027600
    100 H162       87.8549   57.3825   47.4265 dc         1 CLA      0.002900
    101 H161       87.3231   58.6661   46.4048 dc         1 CLA      0.002900
    102 H152       86.8204   56.0270   45.2854 dc         1 CLA      0.029100
    103 H151       88.4418   56.1584   45.6909 dc         1 CLA      0.029100
    104 H143       89.9880   57.7090   44.3169 dc         1 CLA      0.063600
    105 H142       89.2879   58.9496   43.2623 dc         1 CLA      0.063600
    106 H141       88.9933   58.9630   44.9748 dc         1 CLA      0.063600
    107 H122       86.7946   55.9304   42.9721 dc         1 CLA      0.032500
    108 H121       88.4928   55.7707   42.7842 dc         1 CLA      0.032500
    109 H112       88.3226   57.8804   41.1443 dc         1 CLA      0.006600
    110 H111       86.5290   57.5501   41.3414 dc         1 CLA      0.006600
    111 H102       87.0028   55.1237   40.5519 dc         1 CLA      0.024100
    112 H101       88.6564   55.6826   40.1012 dc         1 CLA      0.024100
    113 HHD        73.2709   57.5512   40.3023 da         1 CLA      0.174300
    114 HHC        77.4972   61.0385   43.5065 da         1 CLA      0.136800
    115 HHB        81.4490   61.0019   38.6473 da         1 CLA      0.138300
    116 HBD        77.1631   57.3281   34.2156 dc         1 CLA      0.107700
    117 HAB        78.8606   62.5823   44.0792 da         1 CLA      0.155200
    118 H93        88.9132   57.3410   38.3952 dc         1 CLA      0.069500
    119 H92        87.6773   58.0750   37.1993 dc         1 CLA      0.069500
    120 H91        87.8011   58.6373   38.8678 dc         1 CLA      0.069500
    121 H8         86.0942   57.0614   39.0620 dc         1 CLA      0.029300
    122 H72        86.6019   54.5980   38.2325 dc         1 CLA      0.044400
    123 H71        87.8616   55.2910   37.2371 dc         1 CLA      0.044400
    124 H62        85.9225   56.6557   36.0351 dc         1 CLA      0.015600
    125 H61        84.8908   55.8131   37.1793 dc         1 CLA      0.015600
    126 H52        86.5719   53.9195   35.7440 dc         1 CLA      0.033200
    127 H51        85.8655   54.9779   34.5936 dc         1 CLA      0.033200
    128 H43        85.0221   51.7288   36.2759 dc         1 CLA      0.037000
    129 H42        83.7127   51.7540   35.0200 dc         1 CLA      0.037000
    130 H41        85.4615   52.1778   34.6020 dc         1 CLA      0.037000
    131 H3A        81.4257   59.8063   36.3699 dc         1 CLA      0.041100
    132 H2A        80.1166   57.0462   35.9790 dc         1 CLA      0.083100
    133 H2         82.9304   54.5311   36.3940 da         1 CLA      0.180900
    134 H18        85.0089   59.3456   47.3579 dc         1 CLA     -0.003900
    135 H13        87.0044   58.2045   43.9010 dc         1 CLA      0.019700
    136 H12        82.0249   54.1100   33.8676 dc         1 CLA      0.120400
    137 H11        83.4072   54.9403   33.4016 dc         1 CLA      0.120400
    138 C1         69.5153   61.4148   49.9648 Z1         2 LUT      0.509236
    139 C2         69.0123   61.9540   51.2856 Z2         2 LUT     -0.434695
    140 C3         67.6423   62.6182   51.1677 Z3         2 LUT      0.437453
    141 O3         67.3428   63.0027   52.5082 S1         2 LUT     -0.547129
    142 C4         67.7718   63.7969   50.2034 Z4         2 LUT     -0.468603
    143 C5         68.3316   63.3501   48.8296 Z5         2 LUT      0.279246
    144 C6         69.1035   62.2195   48.7070 Z6         2 LUT     -0.305473
    145 C7         69.7796   61.8651   47.4415 Z7         2 LUT      0.069402
    146 C8         70.3831   62.5642   46.5233 Z8         2 LUT     -0.191631
    147 C9         71.1038   62.1831   45.2417 Z9         2 LUT      0.196698
    148 C10        72.2092   62.9508   44.9402 Y1         2 LUT     -0.208611
    149 C11        73.1445   62.7961   43.7824 Y2         2 LUT      0.030784
    150 C12        74.2153   63.5506   43.4060 Y3         2 LUT     -0.220316
    151 C13        75.1576   63.5144   42.3552 Y4         2 LUT      0.215937
    152 C14        76.2632   64.3623   42.5306 Y5         2 LUT     -0.185793
    153 C15        77.3100   64.5063   41.5593 Y6         2 LUT     -0.057835
    154 C16        68.8997   59.9287   49.8594 Y7         2 LUT     -0.405615
    155 C17        71.0438   61.0930   50.1691 Y7         2 LUT     -0.405615
    156 C18        68.0007   64.3690   47.7852 Y9         2 LUT     -0.369639
    157 C19        70.7288   61.0357   44.3931 W1         2 LUT     -0.333362
    158 C20        74.8980   62.7023   41.0028 W2         2 LUT     -0.323439
    159 C21        88.4686   66.0031   35.0778 Z1         2 LUT      0.406104
    160 C22        89.2844   65.2860   33.8798 Z2         2 LUT     -0.404965
    161 C23        89.4652   66.1424   32.6167 Z3         2 LUT      0.391255
    162 O23        89.7511   65.2695   31.5342 S1         2 LUT     -0.528210
    163 C24        88.1985   66.9664   32.3578 W6         2 LUT     -0.258361
    164 C25        87.1066   67.1013   33.1821 Z5         2 LUT      0.133546
    165 C26        87.0283   66.3491   34.5522 W8         2 LUT     -0.147008
    166 C27        86.1935   67.0259   35.6681 Z7         2 LUT      0.023843
    167 C28        85.1282   66.4813   36.2911 Z8         2 LUT     -0.216987
    168 C29        84.6056   66.9960   37.5527 Z9         2 LUT      0.206524
    169 C30        83.4318   66.4618   38.0415 Y1         2 LUT     -0.215556
    170 C31        82.7854   66.5520   39.2920 Y2         2 LUT      0.025142
    171 C32        81.5863   65.9561   39.4447 Y3         2 LUT     -0.212209
    172 C33        80.6739   66.0295   40.6051 Y4         2 LUT      0.240937
    173 C34        79.5511   65.2894   40.6797 Y5         2 LUT     -0.218862
    174 C35        78.5282   65.1767   41.7504 Y6         2 LUT     -0.023547
    175 C36        89.4185   67.0481   35.7874 Y7         2 LUT     -0.393485
    176 C37        88.4319   64.9023   36.2477 Y7         2 LUT     -0.393485
    177 C38        85.8680   67.9098   32.7333 Y9         2 LUT     -0.387526
    178 C39        85.4194   68.0493   38.1855 W1         2 LUT     -0.322618
    179 C40        81.1389   66.8357   41.7850 W2         2 LUT     -0.358472
    180 H403       81.9641   66.2252   42.2200 R7         2 LUT      0.097720
    181 H402       81.4050   67.9008   41.5124 R7         2 LUT      0.097720
    182 H401       80.3067   66.8536   42.5791 R7         2 LUT      0.097720
    183 H393       86.4574   67.7558   38.3611 R4         2 LUT      0.082505
    184 H392       85.2544   69.0461   37.8119 R4         2 LUT      0.082505
    185 H391       84.9829   68.1215   39.1804 R4         2 LUT      0.082505
    186 H383       85.3765   68.4097   33.5557 R1         2 LUT      0.104030
    187 H382       86.0755   68.6281   31.8545 R1         2 LUT      0.104030
    188 H381       85.0281   67.1831   32.4616 R1         2 LUT      0.104030
    189 H373       89.3723   64.4873   36.6021 T4         2 LUT      0.089537
    190 H372       87.9911   65.3034   37.1439 T4         2 LUT      0.089537
    191 H371       87.9141   64.0287   35.9014 T4         2 LUT      0.089537
    192 H363       89.1252   67.3136   36.8721 T4         2 LUT      0.089537
    193 H362       90.4483   66.7918   35.6722 T4         2 LUT      0.089537
    194 H361       89.3529   67.9748   35.1395 T4         2 LUT      0.089537
    195 H222       90.2774   64.9243   34.1942 U2         2 LUT      0.127376
    196 H221       88.8475   64.3004   33.5147 U2         2 LUT      0.127376
    197 H203       74.4695   63.4072   40.3312 R7         2 LUT      0.087068
    198 H202       75.8576   62.2359   40.5858 R7         2 LUT      0.087068
    199 H201       74.1768   61.9495   41.1147 R7         2 LUT      0.087068
    200 H193       70.7793   61.0599   43.2944 R4         2 LUT      0.089716
    201 H192       71.2894   60.1372   44.6466 R4         2 LUT      0.089716
    202 H191       69.6671   60.7916   44.5519 R4         2 LUT      0.089716
    203 H183       68.8786   64.9204   47.3983 R1         2 LUT      0.094572
    204 H182       67.4717   63.8717   46.9912 R1         2 LUT      0.094572
    205 H181       67.4191   65.1839   48.2193 R1         2 LUT      0.094572
    206 H173       71.5895   62.0057   50.2671 T4         2 LUT      0.093752
    207 H172       71.3111   60.3000   50.9484 T4         2 LUT      0.093752
    208 H171       71.4551   60.6620   49.2235 T4         2 LUT      0.093752
    209 H163       68.9141   59.4099   50.8172 T4         2 LUT      0.093752
    210 H162       67.8743   59.9602   49.6548 T4         2 LUT      0.093752
    211 H161       69.3884   59.2742   49.0975 T4         2 LUT      0.093752
    212 HO3        67.0068   62.2654   53.1036 Q1         2 LUT      0.300121
    213 H8         70.4594   63.6534   46.6402 U7         2 LUT      0.080784
    214 H7         69.8683   60.7590   47.3767 U6         2 LUT      0.042190
    215 H42        66.8134   64.2919   50.1934 U5         2 LUT      0.145166
    216 H41        68.3595   64.6952   50.6227 U5         2 LUT      0.145166
    217 H35        78.6540   65.5385   42.8093 T3         2 LUT      0.077919
    218 H34        79.3627   64.7628   39.6973 T2         2 LUT      0.073626
    219 H32        81.1742   65.3717   38.6397 T1         2 LUT      0.092510
    220 H31        83.1831   67.1556   40.0949 U9         2 LUT      0.070048
    221 H30        82.8853   65.7493   37.4066 U8         2 LUT      0.085442
    222 H3         66.7964   62.0221   50.7596 U3         2 LUT     -0.031596
    223 H28        84.5406   65.5993   35.8477 U7         2 LUT      0.084728
    224 H27        86.7379   67.8763   36.0800 U6         2 LUT      0.087291
    225 H26        86.5117   65.3713   34.4179 Q6         2 LUT      0.075325
    226 H24        88.1321   67.4770   31.4198 Q5         2 LUT      0.094482
    227 H23        90.2909   66.8108   32.7761 U3         2 LUT     -0.024869
    228 H22        68.8708   61.1452   51.9790 U2         2 LUT      0.127376
    229 H21        69.6956   62.7497   51.6273 U2         2 LUT      0.127376
    230 H15        77.1457   64.1340   40.5443 T3         2 LUT      0.093200
    231 H14        76.4149   64.8783   43.4473 T2         2 LUT      0.068865
    232 H12        74.3854   64.3445   44.1192 T1         2 LUT      0.095507
    233 H11        72.9571   61.9829   43.0528 U9         2 LUT      0.068930
    234 H10        72.5730   63.5931   45.7459 U8         2 LUT      0.083911
    235 H1         89.8452   65.7165   30.6399 Q1         2 LUT      0.297311
@<TRIPOS>BOND
    1     6     1 1
    2     7     2 1
    3     8     3 1
    4     9     4 1
    5    11     4 1
    6    12     6 1
    7    13     9 1
    8    16     9 1
    9    25     5 1
   10    25    16 1
   11    26    10 1
   12    26    17 1
   13    27    18 1
   14    28    14 1
   15    28    19 1
   16    29    12 1
   17    30    13 1
   18    31    24 1
   19    32     1 1
   20    32    25 1
   21    33    21 1
   22    33    26 1
   23    34    22 1
   24    34    27 1
   25    35    23 1
   26    35    28 1
   27    36    12 1
   28    36    24 1
   29    37    13 1
   30    37    15 1
   31    38    31 1
   32    39    20 1
   33    39    32 1
   34    40     2 1
   35    40    33 1
   36    41     3 1
   37    41    34 1
   38    42     4 1
   39    42    35 1
   40    43    38 1
   41    44     5 1
   42    44    17 1
   43    44    39 1
   44    45    10 1
   45    45    18 1
   46    45    40 1
   47    46    19 1
   48    46    41 1
   49    47    14 1
   50    47    16 1
   51    47    42 1
   52    48    38 1
   53    49    48 1
   54    50    49 1
   55    51    50 1
   56    52    51 1
   57    53    51 1
   58    54    53 1
   59    55    54 1
   60    56    55 1
   61    57    56 1
   62    58    56 1
   63    59    58 1
   64    60    59 1
   65    61    60 1
   66    62    61 1
   67    63    61 1
   68    64    27 1
   69    64    46 1
   70    65     5 1
   71    65    10 1
   72    65    64 1
   73    65    14 1
   74    66    23 1
   75    67    23 1
   76    68    23 1
   77    69    22 1
   78    70    22 1
   79    71    22 1
   80    72    21 1
   81    73    21 1
   82    74    21 1
   83    75    20 1
   84    76    20 1
   85    77    20 1
   86    78    15 1
   87    79    15 1
   88    80    15 1
   89    81     8 1
   90    82     8 1
   91    83     8 1
   92    84     7 1
   93    85     7 1
   94    86     6 1
   95    87     6 1
   96    88     3 1
   97    89     3 1
   98    90     1 1
   99    91     1 1
  100    92    63 1
  101    93    63 1
  102    94    63 1
  103    95    62 1
  104    96    62 1
  105    97    62 1
  106    98    60 1
  107    99    60 1
  108   100    59 1
  109   101    59 1
  110   102    58 1
  111   103    58 1
  112   104    57 1
  113   105    57 1
  114   106    57 1
  115   107    55 1
  116   108    55 1
  117   109    54 1
  118   110    54 1
  119   111    53 1
  120   112    53 1
  121   113    19 1
  122   114    18 1
  123   115    17 1
  124   116     9 1
  125   117     2 1
  126   118    52 1
  127   119    52 1
  128   120    52 1
  129   121    51 1
  130   122    50 1
  131   123    50 1
  132   124    49 1
  133   125    49 1
  134   126    48 1
  135   127    48 1
  136   128    43 1
  137   129    43 1
  138   130    43 1
  139   131    39 1
  140   132    32 1
  141   133    31 1
  142   134    61 1
  143   135    56 1
  144   136    24 1
  145   137    24 1
  146   139   138 1
  147   140   139 1
  148   141   140 1
  149   142   140 1
  150   143   142 1
  151   144   138 1
  152   144   143 1
  153   145   144 1
  154   146   145 1
  155   147   146 1
  156   148   147 1
  157   149   148 1
  158   150   149 1
  159   151   150 1
  160   152   151 1
  161   153   152 1
  162   154   138 1
  163   155   138 1
  164   156   143 1
  165   157   147 1
  166   158   151 1
  167   160   159 1
  168   161   160 1
  169   162   161 1
  170   163   161 1
  171   164   163 1
  172   165   159 1
  173   165   164 1
  174   166   165 1
  175   167   166 1
  176   168   167 1
  177   169   168 1
  178   170   169 1
  179   171   170 1
  180   172   171 1
  181   173   172 1
  182   174   153 1
  183   174   173 1
  184   175   159 1
  185   176   159 1
  186   177   164 1
  187   178   168 1
  188   179   172 1
  189   180   179 1
  190   181   179 1
  191   182   179 1
  192   183   178 1
  193   184   178 1
  194   185   178 1
  195   186   177 1
  196   187   177 1
  197   188   177 1
  198   189   176 1
  199   190   176 1
  200   191   176 1
  201   192   175 1
  202   193   175 1
  203   194   175 1
  204   195   160 1
  205   196   160 1
  206   197   158 1
  207   198   158 1
  208   199   158 1
  209   200   157 1
  210   201   157 1
  211   202   157 1
  212   203   156 1
  213   204   156 1
  214   205   156 1
  215   206   155 1
  216   207   155 1
  217   208   155 1
  218   209   154 1
  219   210   154 1
  220   211   154 1
  221   212   141 1
  222   213   146 1
  223   214   145 1
  224   215   142 1
  225   216   142 1
  226   217   174 1
  227   218   173 1
  228   219   171 1
  229   220   170 1
  230   221   169 1
  231   222   140 1
  232   223   167 1
  233   224   166 1
  234   225   165 1
  235   226   163 1
  236   227   161 1
  237   228   139 1
  238   229   139 1
  239   230   153 1
  240   231   152 1
  241   232   150 1
  242   233   149 1
  243   234   148 1
  244   235   162 1
  245   65    153 1
  246   65    174 1
@<TRIPOS>SUBSTRUCTURE
      1 CLA               1 ****               0 ****  **** 
      2 LUT             138 ****               0 ****  **** 
