@<TRIPOS>MOLECULE
Cpptraj generated mol2 file.
  235   246     2     0     0
SMALL
USER_CHARGES


@<TRIPOS>ATOM
      1 CAA        78.1314   57.7777   34.3272 a2         1 CLA     -0.055900
      2 CAB        77.6351   61.5107   43.3706 c8         1 CLA     -0.148500
      3 CAC        71.0229   57.0854   42.7093 a2         1 CLA     -0.012600
      4 CAD        73.9513   54.7991   35.5438 ck         1 CLA      0.398800
      5 NA         76.9722   58.1327   37.7498 ns         1 CLA     -0.225500
      6 CBA        79.3697   57.7781   33.3843 a2         1 CLA     -0.135000
      7 CBB        78.7284   61.5082   44.1735 c0         1 CLA     -0.395200
      8 CBC        71.1494   55.5608   43.0207 a3         1 CLA     -0.037700
      9 CBD        75.4117   55.4264   35.2522 a1         1 CLA     -0.053900
     10 NB         76.7185   59.5645   40.3264 nm         1 CLA     -0.295700
     11 OBD        73.4014   53.9942   34.8055 o2         1 CLA     -0.494600
     12 CGA        79.9170   56.4614   33.0031 c4         1 CLA      0.827000
     13 CGD        76.4444   54.2718   34.9400 c4         1 CLA      0.655300
     14 ND         74.2568   56.9390   38.3775 nm         1 CLA     -0.291600
     15 CED        76.7356   51.8202   35.5372 a3         1 CLA      0.005400
     16 CHA        75.7615   56.4207   36.4220 cs         1 CLA     -0.123800
     17 CHB        78.7101   59.5571   38.8113 aa         1 CLA     -0.291900
     18 CHC        75.3375   59.7719   42.3477 aa         1 CLA     -0.090400
     19 CHD        72.4447   56.6589   39.9597 aa         1 CLA     -0.052000
     20 CMA        80.4677   57.6980   37.0652 a3         1 CLA     -0.230700
     21 CMB        79.9181   61.4776   40.9862 a3         1 CLA     -0.180800
     22 CMC        72.8497   59.1650   44.3224 a3         1 CLA     -0.134000
     23 CMD        71.2804   54.8463   37.7655 a3         1 CLA     -0.141100
     24 C1         80.6877   54.3743   33.8795 a2         1 CLA      0.023000
     25 C1A        76.8802   57.2781   36.6389 ac         1 CLA     -0.015100
     26 C1B        78.0578   59.9331   40.0163 cr         1 CLA      0.054700
     27 C1C        74.2637   58.9318   42.0639 cn         1 CLA     -0.005600
     28 C1D        73.0391   56.3499   38.7147 ap         1 CLA     -0.047300
     29 O1A        80.1328   56.0959   31.8621 o2         1 CLA     -0.610800
     30 O1D        77.4090   54.3454   34.1478 o2         1 CLA     -0.558200
     31 C2         80.5362   53.5748   35.1455 c8         1 CLA     -0.325100
     32 C2A        78.2099   57.3877   35.8220 a1         1 CLA      0.098600
     33 C2B        78.5660   60.7674   41.0499 cb         1 CLA      0.088500
     34 C2C        73.0817   58.6490   42.8906 cb         1 CLA      0.053700
     35 C2D        72.5473   55.5143   37.7113 cb         1 CLA      0.058900
     36 O2A        80.3400   55.7794   34.1073 o1         1 CLA     -0.437200
     37 O2D        76.1270   53.0906   35.6747 o1         1 CLA     -0.357600
     38 C3         81.4745   53.1808   35.9968 c5         1 CLA      0.031200
     39 C3A        79.0999   58.2878   36.6245 a1         1 CLA      0.166800
     40 C3B        77.6049   60.8097   42.0512 cb         1 CLA      0.035000
     41 C3C        72.3045   57.7546   42.2100 cb         1 CLA     -0.089900
     42 C3D        73.5892   55.4410   36.7936 cb         1 CLA     -0.035900
     43 C4         82.4867   52.1552   35.8162 a3         1 CLA     -0.053300
     44 C4A        78.2181   58.6538   37.8323 ac         1 CLA      0.001800
     45 C4B        76.4713   60.0352   41.6026 cn         1 CLA     -0.020900
     46 C4C        72.9450   57.5204   40.9789 cr         1 CLA     -0.044400
     47 C4D        74.6130   56.2906   37.2775 c6         1 CLA     -0.046000
     48 C5         81.7842   54.0519   37.2577 a2         1 CLA     -0.070400
     49 C6         82.8596   55.1772   37.1485 a2         1 CLA      0.043900
     50 C7         83.0481   55.9629   38.5432 a2         1 CLA     -0.150000
     51 C8         83.8614   57.2712   38.4968 a1         1 CLA      0.064200
     52 C9         85.1139   57.1892   37.5987 a3         1 CLA     -0.259300
     53 C10        84.1767   57.7475   39.9106 a2         1 CLA     -0.071900
     54 C11        82.9827   58.3867   40.5992 a2         1 CLA      0.014500
     55 C12        83.4258   59.2170   41.8024 a2         1 CLA     -0.112100
     56 C13        84.0363   58.5662   43.0330 a1         1 CLA      0.089200
     57 C14        83.3341   57.3235   43.6817 a3         1 CLA     -0.239100
     58 C15        84.3622   59.6813   44.0779 a2         1 CLA     -0.102200
     59 C16        83.1295   60.1967   44.7812 a2         1 CLA      0.023900
     60 C17        83.4858   60.9067   46.0693 a2         1 CLA     -0.105700
     61 C18        82.2796   61.4740   46.8643 a1         1 CLA      0.206800
     62 C19        81.3277   60.4809   47.5417 a3         1 CLA     -0.280100
     63 C20        82.6059   62.5837   47.8842 a3         1 CLA     -0.280100
     64 NC         74.0201   58.3558   40.8493 nx         1 CLA     -0.309200
     65 MG         75.3920   58.4335   39.2588 mg         1 CLA      0.895000
     66 HMD3       71.4166   53.8628   38.2401 dc         1 CLA      0.064300
     67 HMD2       70.5752   55.4386   38.3681 dc         1 CLA      0.064300
     68 HMD1       70.7314   54.6722   36.8075 dc         1 CLA      0.064300
     69 HMC3       72.9886   58.3722   45.0820 dc         1 CLA      0.052100
     70 HMC2       73.2476   60.1213   44.5544 dc         1 CLA      0.052100
     71 HMC1       71.7646   59.3967   44.3398 dc         1 CLA      0.052100
     72 HMB3       80.7241   60.7829   41.1501 dc         1 CLA      0.063600
     73 HMB2       80.0459   62.0900   40.0505 dc         1 CLA      0.063600
     74 HMB1       79.9181   62.1579   41.8758 dc         1 CLA      0.063600
     75 HMA3       81.0430   58.3795   37.6466 dc         1 CLA      0.058300
     76 HMA2       80.2834   56.7070   37.4577 dc         1 CLA      0.058300
     77 HMA1       81.0450   57.7388   36.1316 dc         1 CLA      0.058300
     78 HED3       77.7320   51.7786   36.0715 dc         1 CLA      0.079300
     79 HED2       76.1237   51.1151   36.0341 dc         1 CLA      0.079300
     80 HED1       76.8468   51.3831   34.5398 dc         1 CLA      0.079300
     81 HBC3       71.5993   55.3941   43.9713 dc         1 CLA      0.016300
     82 HBC2       70.2262   55.0234   42.9893 dc         1 CLA      0.016300
     83 HBC1       71.7849   55.1158   42.2892 dc         1 CLA      0.016300
     84 HBB2       78.6563   61.9470   45.1636 da         1 CLA      0.183000
     85 HBB1       79.6901   61.0139   43.8865 da         1 CLA      0.183000
     86 HBA2       79.2174   58.2589   32.3997 dc         1 CLA      0.029400
     87 HBA1       80.0651   58.4556   33.8937 dc         1 CLA      0.029400
     88 HAC2       70.5881   57.4959   43.6264 dc         1 CLA      0.029300
     89 HAC1       70.2848   57.1444   41.8780 dc         1 CLA      0.029300
     90 HAA2       77.3510   57.1938   33.8426 dc         1 CLA      0.028700
     91 HAA1       77.6844   58.7711   34.2973 dc         1 CLA      0.028700
     92 H203       83.1475   62.0713   48.7040 dc         1 CLA      0.065600
     93 H202       83.3006   63.4441   47.5662 dc         1 CLA      0.065600
     94 H201       81.7195   62.9854   48.3319 dc         1 CLA      0.065600
     95 H193       80.6827   61.1377   48.0468 dc         1 CLA      0.065600
     96 H192       80.8805   59.6603   46.9448 dc         1 CLA      0.065600
     97 H191       81.8984   59.9872   48.3116 dc         1 CLA      0.065600
     98 H172       84.0040   60.2388   46.7598 dc         1 CLA      0.027600
     99 H171       84.0525   61.7507   45.7839 dc         1 CLA      0.027600
    100 H162       82.5447   60.9342   44.2518 dc         1 CLA      0.002900
    101 H161       82.5161   59.3722   45.1200 dc         1 CLA      0.002900
    102 H152       84.9682   59.0973   44.8197 dc         1 CLA      0.029100
    103 H151       84.8646   60.5596   43.6761 dc         1 CLA      0.029100
    104 H143       83.4644   56.4730   42.9711 dc         1 CLA      0.063600
    105 H142       83.7831   57.0462   44.6729 dc         1 CLA      0.063600
    106 H141       82.2590   57.5155   43.7843 dc         1 CLA      0.063600
    107 H122       84.0485   60.0482   41.5395 dc         1 CLA      0.032500
    108 H121       82.4895   59.6978   42.0448 dc         1 CLA      0.032500
    109 H112       82.5302   59.0296   39.8959 dc         1 CLA      0.006600
    110 H111       82.2814   57.6817   40.9260 dc         1 CLA      0.006600
    111 H102       84.6292   56.9107   40.3633 dc         1 CLA      0.024100
    112 H101       84.9612   58.4012   39.9110 dc         1 CLA      0.024100
    113 HHD        71.6447   55.9752   40.2073 da         1 CLA      0.174300
    114 HHC        75.2677   60.3379   43.3181 da         1 CLA      0.136800
    115 HHB        79.7038   59.9036   38.6700 da         1 CLA      0.138300
    116 HBD        75.3806   56.0681   34.4539 dc         1 CLA      0.107700
    117 HAB        76.7328   61.9917   43.7463 da         1 CLA      0.155200
    118 H93        84.8760   56.9664   36.5849 dc         1 CLA      0.069500
    119 H92        85.6648   58.1552   37.6331 dc         1 CLA      0.069500
    120 H91        85.7706   56.4091   38.0671 dc         1 CLA      0.069500
    121 H8         83.3322   57.9899   38.0971 dc         1 CLA      0.029300
    122 H72        82.1076   56.0726   39.0756 dc         1 CLA      0.044400
    123 H71        83.4815   55.2355   39.1819 dc         1 CLA      0.044400
    124 H62        83.8045   54.7034   36.9737 dc         1 CLA      0.015600
    125 H61        82.6353   55.8284   36.3532 dc         1 CLA      0.015600
    126 H52        80.8756   54.4255   37.7519 dc         1 CLA      0.033200
    127 H51        82.2248   53.3957   37.9540 dc         1 CLA      0.033200
    128 H43        82.4550   51.3073   36.5274 dc         1 CLA      0.037000
    129 H42        82.3383   51.6609   34.8384 dc         1 CLA      0.037000
    130 H41        83.4865   52.5414   35.7989 dc         1 CLA      0.037000
    131 H3A        79.2758   59.2948   36.1483 dc         1 CLA      0.041100
    132 H2A        78.6175   56.3425   35.8552 dc         1 CLA      0.083100
    133 H2         79.6049   53.0791   35.2956 da         1 CLA      0.180900
    134 H18        81.5829   61.9351   46.1653 dc         1 CLA     -0.003900
    135 H13        84.9929   58.1329   42.8048 dc         1 CLA      0.019700
    136 H12        80.0296   53.7723   33.2300 dc         1 CLA      0.120400
    137 H11        81.7321   54.1413   33.6344 dc         1 CLA      0.120400
    138 C1         68.0869   60.6256   49.8633 Z1         2 LUT      0.509236
    139 C2         66.7107   60.4474   50.5827 Z2         2 LUT     -0.434695
    140 C3         65.9826   61.7440   51.0041 Z3         2 LUT      0.437453
    141 O3         66.2122   62.3381   52.3078 S1         2 LUT     -0.547129
    142 C4         66.1958   62.8678   49.8446 Z4         2 LUT     -0.468603
    143 C5         66.8571   62.4908   48.5464 Z5         2 LUT      0.279246
    144 C6         67.7282   61.4981   48.5544 Z6         2 LUT     -0.305473
    145 C7         68.2433   60.9206   47.2705 Z7         2 LUT      0.069402
    146 C8         69.1379   61.5868   46.4909 Z8         2 LUT     -0.191631
    147 C9         69.6243   61.4242   45.1648 Z9         2 LUT      0.196698
    148 C10        70.5938   62.1362   44.6295 Y1         2 LUT     -0.208611
    149 C11        71.2767   62.1404   43.3589 Y2         2 LUT      0.030784
    150 C12        72.3842   62.8335   43.0477 Y3         2 LUT     -0.220316
    151 C13        73.1870   62.6499   41.8872 Y4         2 LUT      0.215937
    152 C14        74.4427   63.1563   41.8537 Y5         2 LUT     -0.185793
    153 C15        75.5208   63.1176   40.9030 Y6         2 LUT     -0.057835
    154 C16        68.6227   59.2479   49.7062 Y7         2 LUT     -0.405615
    155 C17        68.9315   61.4048   50.9024 Y7         2 LUT     -0.405615
    156 C18        66.3497   63.3015   47.4307 Y9         2 LUT     -0.369639
    157 C19        68.9624   60.2004   44.4204 W1         2 LUT     -0.333362
    158 C20        72.5569   61.8797   40.7050 W2         2 LUT     -0.323439
    159 C21        87.1595   64.7923   34.9814 Z1         2 LUT      0.406104
    160 C22        87.8532   64.3126   33.7149 Z2         2 LUT     -0.404965
    161 C23        88.0249   65.3193   32.6436 Z3         2 LUT      0.391255
    162 O23        88.5894   64.7748   31.4315 S1         2 LUT     -0.528210
    163 C24        86.8141   66.1569   32.4456 W6         2 LUT     -0.258361
    164 C25        85.7305   66.1511   33.2815 Z5         2 LUT      0.133546
    165 C26        85.6060   65.2623   34.5383 W8         2 LUT     -0.147008
    166 C27        84.8469   65.9302   35.7084 Z7         2 LUT      0.023843
    167 C28        83.7114   65.2975   36.1834 Z8         2 LUT     -0.216987
    168 C29        82.9748   65.6952   37.3424 Z9         2 LUT      0.206524
    169 C30        81.7860   65.0648   37.6181 Y1         2 LUT     -0.215556
    170 C31        80.9064   65.2339   38.7563 Y2         2 LUT      0.025142
    171 C32        79.7057   64.5621   38.9935 Y3         2 LUT     -0.212209
    172 C33        78.8977   64.6690   40.1718 Y4         2 LUT      0.240937
    173 C34        77.7142   64.0275   40.1238 Y5         2 LUT     -0.218862
    174 C35        76.6091   63.9763   40.9763 Y6         2 LUT     -0.023547
    175 C36        87.9930   65.9950   35.7130 Y7         2 LUT     -0.393485
    176 C37        87.0976   63.6913   36.0407 Y7         2 LUT     -0.393485
    177 C38        84.4921   66.9599   32.8742 Y9         2 LUT     -0.387526
    178 C39        83.5465   66.8295   38.2025 W1         2 LUT     -0.322618
    179 C40        79.2026   65.6591   41.1951 W2         2 LUT     -0.358472
    180 H403       79.6500   66.5811   40.7472 R7         2 LUT      0.097720
    181 H402       78.3185   65.9307   41.7892 R7         2 LUT      0.097720
    182 H401       79.9132   65.3634   41.9923 R7         2 LUT      0.097720
    183 H393       82.9885   67.1403   39.0454 R4         2 LUT      0.082505
    184 H392       84.5973   66.6359   38.4583 R4         2 LUT      0.082505
    185 H391       83.7381   67.6209   37.5269 R4         2 LUT      0.082505
    186 H383       83.6699   66.3541   32.8548 R1         2 LUT      0.104030
    187 H382       84.2822   67.6817   33.5967 R1         2 LUT      0.104030
    188 H381       84.5595   67.3787   31.8682 R1         2 LUT      0.104030
    189 H373       88.1057   63.5852   36.5515 T4         2 LUT      0.089537
    190 H372       86.4440   63.8159   36.8961 T4         2 LUT      0.089537
    191 H371       87.0015   62.5896   35.6659 T4         2 LUT      0.089537
    192 H363       88.0133   66.9291   35.1135 T4         2 LUT      0.089537
    193 H362       87.4203   66.2222   36.6082 T4         2 LUT      0.089537
    194 H361       89.0597   65.7657   35.9667 T4         2 LUT      0.089537
    195 H222       88.7903   63.7979   33.8901 U2         2 LUT      0.127376
    196 H221       87.2516   63.4206   33.3897 U2         2 LUT      0.127376
    197 H203       73.1522   62.0210   39.8445 R7         2 LUT      0.087068
    198 H202       72.3426   60.8112   40.8580 R7         2 LUT      0.087068
    199 H201       71.6607   62.3763   40.4338 R7         2 LUT      0.087068
    200 H193       69.4016   60.0223   43.4403 R4         2 LUT      0.089716
    201 H192       69.1472   59.2977   44.9520 R4         2 LUT      0.089716
    202 H191       67.7931   60.2873   44.3511 R4         2 LUT      0.089716
    203 H183       66.3027   64.3644   47.6645 R1         2 LUT      0.094572
    204 H182       66.9707   63.1354   46.5630 R1         2 LUT      0.094572
    205 H181       65.3838   62.9913   47.1111 R1         2 LUT      0.094572
    206 H173       68.9066   60.7792   51.8089 T4         2 LUT      0.093752
    207 H172       69.9530   61.5211   50.5749 T4         2 LUT      0.093752
    208 H171       68.4191   62.3419   51.0128 T4         2 LUT      0.093752
    209 H163       68.0306   58.5701   49.1075 T4         2 LUT      0.093752
    210 H162       69.6643   59.2605   49.2510 T4         2 LUT      0.093752
    211 H161       68.8593   58.8496   50.7278 T4         2 LUT      0.093752
    212 HO3        66.4208   61.7336   53.0397 Q1         2 LUT      0.300121
    213 H8         69.4937   62.5078   46.9044 U7         2 LUT      0.080784
    214 H7         67.8397   60.0237   46.8689 U6         2 LUT      0.042190
    215 H42        65.1874   63.2947   49.5505 U5         2 LUT      0.145166
    216 H41        66.6334   63.7354   50.3498 U5         2 LUT      0.145166
    217 H35        76.5377   64.7177   41.8441 T3         2 LUT      0.077919
    218 H34        77.5629   63.2826   39.3194 T2         2 LUT      0.073626
    219 H32        79.3394   63.8953   38.2949 T1         2 LUT      0.092510
    220 H31        81.1831   65.8904   39.4429 U9         2 LUT      0.070048
    221 H30        81.3672   64.3697   36.8764 U8         2 LUT      0.085442
    222 H3         64.9244   61.4725   50.9345 U3         2 LUT     -0.031596
    223 H28        83.2683   64.4604   35.6521 U7         2 LUT      0.084728
    224 H27        85.3544   66.7287   36.2504 U6         2 LUT      0.087291
    225 H26        85.0705   64.3590   34.2031 Q6         2 LUT      0.075325
    226 H24        86.7809   66.6820   31.4739 Q5         2 LUT      0.094482
    227 H23        88.8588   65.8541   33.1368 U3         2 LUT     -0.024869
    228 H22        66.0634   59.9902   49.7950 U2         2 LUT      0.127376
    229 H21        66.8470   59.8550   51.4993 U2         2 LUT      0.127376
    230 H15        75.3957   62.3916   40.0913 T3         2 LUT      0.093200
    231 H14        74.8438   63.6955   42.7305 T2         2 LUT      0.068865
    232 H12        72.8680   63.5715   43.7105 T1         2 LUT      0.095507
    233 H11        70.8913   61.4180   42.6617 U9         2 LUT      0.068930
    234 H10        71.0117   62.8882   45.3562 U8         2 LUT      0.083911
    235 H1         88.0178   64.0896   31.0099 Q1         2 LUT      0.297311
@<TRIPOS>BOND
    1     6     1 1
    2     7     2 1
    3     8     3 1
    4     9     4 1
    5    11     4 1
    6    12     6 1
    7    13     9 1
    8    16     9 1
    9    25     5 1
   10    25    16 1
   11    26    10 1
   12    26    17 1
   13    27    18 1
   14    28    14 1
   15    28    19 1
   16    29    12 1
   17    30    13 1
   18    31    24 1
   19    32     1 1
   20    32    25 1
   21    33    21 1
   22    33    26 1
   23    34    22 1
   24    34    27 1
   25    35    23 1
   26    35    28 1
   27    36    12 1
   28    36    24 1
   29    37    13 1
   30    37    15 1
   31    38    31 1
   32    39    20 1
   33    39    32 1
   34    40     2 1
   35    40    33 1
   36    41     3 1
   37    41    34 1
   38    42     4 1
   39    42    35 1
   40    43    38 1
   41    44     5 1
   42    44    17 1
   43    44    39 1
   44    45    10 1
   45    45    18 1
   46    45    40 1
   47    46    19 1
   48    46    41 1
   49    47    14 1
   50    47    16 1
   51    47    42 1
   52    48    38 1
   53    49    48 1
   54    50    49 1
   55    51    50 1
   56    52    51 1
   57    53    51 1
   58    54    53 1
   59    55    54 1
   60    56    55 1
   61    57    56 1
   62    58    56 1
   63    59    58 1
   64    60    59 1
   65    61    60 1
   66    62    61 1
   67    63    61 1
   68    64    27 1
   69    64    46 1
   70    65     5 1
   71    65    10 1
   72    65    64 1
   73    65    14 1
   74    66    23 1
   75    67    23 1
   76    68    23 1
   77    69    22 1
   78    70    22 1
   79    71    22 1
   80    72    21 1
   81    73    21 1
   82    74    21 1
   83    75    20 1
   84    76    20 1
   85    77    20 1
   86    78    15 1
   87    79    15 1
   88    80    15 1
   89    81     8 1
   90    82     8 1
   91    83     8 1
   92    84     7 1
   93    85     7 1
   94    86     6 1
   95    87     6 1
   96    88     3 1
   97    89     3 1
   98    90     1 1
   99    91     1 1
  100    92    63 1
  101    93    63 1
  102    94    63 1
  103    95    62 1
  104    96    62 1
  105    97    62 1
  106    98    60 1
  107    99    60 1
  108   100    59 1
  109   101    59 1
  110   102    58 1
  111   103    58 1
  112   104    57 1
  113   105    57 1
  114   106    57 1
  115   107    55 1
  116   108    55 1
  117   109    54 1
  118   110    54 1
  119   111    53 1
  120   112    53 1
  121   113    19 1
  122   114    18 1
  123   115    17 1
  124   116     9 1
  125   117     2 1
  126   118    52 1
  127   119    52 1
  128   120    52 1
  129   121    51 1
  130   122    50 1
  131   123    50 1
  132   124    49 1
  133   125    49 1
  134   126    48 1
  135   127    48 1
  136   128    43 1
  137   129    43 1
  138   130    43 1
  139   131    39 1
  140   132    32 1
  141   133    31 1
  142   134    61 1
  143   135    56 1
  144   136    24 1
  145   137    24 1
  146   139   138 1
  147   140   139 1
  148   141   140 1
  149   142   140 1
  150   143   142 1
  151   144   138 1
  152   144   143 1
  153   145   144 1
  154   146   145 1
  155   147   146 1
  156   148   147 1
  157   149   148 1
  158   150   149 1
  159   151   150 1
  160   152   151 1
  161   153   152 1
  162   154   138 1
  163   155   138 1
  164   156   143 1
  165   157   147 1
  166   158   151 1
  167   160   159 1
  168   161   160 1
  169   162   161 1
  170   163   161 1
  171   164   163 1
  172   165   159 1
  173   165   164 1
  174   166   165 1
  175   167   166 1
  176   168   167 1
  177   169   168 1
  178   170   169 1
  179   171   170 1
  180   172   171 1
  181   173   172 1
  182   174   153 1
  183   174   173 1
  184   175   159 1
  185   176   159 1
  186   177   164 1
  187   178   168 1
  188   179   172 1
  189   180   179 1
  190   181   179 1
  191   182   179 1
  192   183   178 1
  193   184   178 1
  194   185   178 1
  195   186   177 1
  196   187   177 1
  197   188   177 1
  198   189   176 1
  199   190   176 1
  200   191   176 1
  201   192   175 1
  202   193   175 1
  203   194   175 1
  204   195   160 1
  205   196   160 1
  206   197   158 1
  207   198   158 1
  208   199   158 1
  209   200   157 1
  210   201   157 1
  211   202   157 1
  212   203   156 1
  213   204   156 1
  214   205   156 1
  215   206   155 1
  216   207   155 1
  217   208   155 1
  218   209   154 1
  219   210   154 1
  220   211   154 1
  221   212   141 1
  222   213   146 1
  223   214   145 1
  224   215   142 1
  225   216   142 1
  226   217   174 1
  227   218   173 1
  228   219   171 1
  229   220   170 1
  230   221   169 1
  231   222   140 1
  232   223   167 1
  233   224   166 1
  234   225   165 1
  235   226   163 1
  236   227   161 1
  237   228   139 1
  238   229   139 1
  239   230   153 1
  240   231   152 1
  241   232   150 1
  242   233   149 1
  243   234   148 1
  244   235   162 1
  245   65    153 1
  246   65    174 1
@<TRIPOS>SUBSTRUCTURE
      1 CLA               1 ****               0 ****  **** 
      2 LUT             138 ****               0 ****  **** 
