@<TRIPOS>MOLECULE
Cpptraj generated mol2 file.
  235   246     2     0     0
SMALL
USER_CHARGES


@<TRIPOS>ATOM
      1 CAA        79.9947   58.1847   34.1859 a2         1 CLA     -0.055900
      2 CAB        80.1936   62.6153   43.0160 c8         1 CLA     -0.148500
      3 CAC        73.3220   58.5354   43.0347 a2         1 CLA     -0.012600
      4 CAD        75.5635   56.0662   35.7161 ck         1 CLA      0.398800
      5 NA         78.8607   59.0027   37.5816 ns         1 CLA     -0.225500
      6 CBA        81.3041   57.8580   33.4679 a2         1 CLA     -0.135000
      7 CBB        81.0368   63.6354   43.3102 c0         1 CLA     -0.395200
      8 CBC        73.4967   57.0131   43.2434 a3         1 CLA     -0.037700
      9 CBD        76.9806   56.5544   35.2302 a1         1 CLA     -0.053900
     10 NB         78.9436   60.7547   40.0804 nm         1 CLA     -0.295700
     11 OBD        74.8194   55.2332   35.1376 o2         1 CLA     -0.494600
     12 CGA        81.5362   56.3705   33.3511 c4         1 CLA      0.827000
     13 CGD        77.9613   55.3984   35.0290 c4         1 CLA      0.655300
     14 ND         76.0088   58.4242   38.3067 nm         1 CLA     -0.291600
     15 CED        78.7150   53.2532   36.0331 a3         1 CLA      0.005400
     16 CHA        77.4236   57.6199   36.3472 cs         1 CLA     -0.123800
     17 CHB        80.7350   60.2838   38.5276 aa         1 CLA     -0.291900
     18 CHC        77.6826   61.0607   42.2411 aa         1 CLA     -0.090400
     19 CHD        74.2085   58.2608   40.0045 aa         1 CLA     -0.052000
     20 CMA        82.3492   57.9757   37.0336 a3         1 CLA     -0.230700
     21 CMB        82.2736   62.3391   40.3618 a3         1 CLA     -0.180800
     22 CMC        75.6392   60.3936   44.5047 a3         1 CLA     -0.134000
     23 CMD        72.8347   56.3847   37.9952 a3         1 CLA     -0.141100
     24 C1         82.2880   54.4163   34.5711 a2         1 CLA      0.023000
     25 C1A        78.6650   58.2322   36.5131 ac         1 CLA     -0.015100
     26 C1B        80.2145   60.8791   39.7029 cr         1 CLA      0.054700
     27 C1C        76.5318   60.2712   42.0393 cn         1 CLA     -0.005600
     28 C1D        74.7612   57.9657   38.7086 ap         1 CLA     -0.047300
     29 O1A        81.1322   55.6468   32.4448 o2         1 CLA     -0.610800
     30 O1D        78.7566   55.2294   34.1024 o2         1 CLA     -0.558200
     31 C2         83.2353   54.2145   35.7474 c8         1 CLA     -0.325100
     32 C2A        80.0069   57.9269   35.6906 a1         1 CLA      0.098600
     33 C2B        80.9251   61.7574   40.5763 cb         1 CLA      0.088500
     34 C2C        75.5418   59.8958   43.0119 cb         1 CLA      0.053700
     35 C2D        74.1595   57.0656   37.8306 cb         1 CLA      0.058900
     36 O2A        82.1191   55.8707   34.4369 o1         1 CLA     -0.437200
     37 O2D        77.9454   54.5371   36.1361 o1         1 CLA     -0.357600
     38 C3         84.4812   53.7395   35.7799 c5         1 CLA      0.031200
     39 C3A        81.0771   58.8092   36.4755 a1         1 CLA      0.166800
     40 C3B        80.0657   61.9368   41.6693 cb         1 CLA      0.035000
     41 C3C        74.4716   59.1479   42.3509 cb         1 CLA     -0.089900
     42 C3D        75.1925   56.8521   36.8966 cb         1 CLA     -0.035900
     43 C4         84.9789   52.2995   35.8676 a3         1 CLA     -0.053300
     44 C4A        80.2320   59.3692   37.6358 ac         1 CLA      0.001800
     45 C4B        78.8109   61.3096   41.3292 cn         1 CLA     -0.020900
     46 C4C        74.9441   59.0455   41.0071 cr         1 CLA     -0.044400
     47 C4D        76.2957   57.7014   37.2026 c6         1 CLA     -0.046000
     48 C5         85.6385   54.7109   35.6243 a2         1 CLA     -0.070400
     49 C6         85.7669   55.7169   36.7148 a2         1 CLA      0.043900
     50 C7         86.7896   56.7785   36.4395 a2         1 CLA     -0.150000
     51 C8         87.1879   57.6221   37.6713 a1         1 CLA      0.064200
     52 C9         88.0287   58.8262   37.2833 a3         1 CLA     -0.259300
     53 C10        87.9296   56.7463   38.7393 a2         1 CLA     -0.071900
     54 C11        88.6189   57.5244   39.8829 a2         1 CLA      0.014500
     55 C12        88.9236   56.6108   41.0554 a2         1 CLA     -0.112100
     56 C13        89.3544   57.2298   42.3807 a1         1 CLA      0.089200
     57 C14        90.6428   58.0238   42.2644 a3         1 CLA     -0.239100
     58 C15        89.5796   56.0518   43.4650 a2         1 CLA     -0.102200
     59 C16        89.6050   56.5350   44.9628 a2         1 CLA      0.023900
     60 C17        88.1452   56.9382   45.3270 a2         1 CLA     -0.105700
     61 C18        88.0616   57.4668   46.7822 a1         1 CLA      0.206800
     62 C19        86.6582   57.7875   47.2848 a3         1 CLA     -0.280100
     63 C20        88.7165   56.5428   47.8276 a3         1 CLA     -0.280100
     64 NC         76.1865   59.6423   40.8507 nx         1 CLA     -0.309200
     65 MG         77.4035   59.5419   39.2142 mg         1 CLA      0.895000
     66 HMD3       72.7710   55.9147   39.0018 dc         1 CLA      0.064300
     67 HMD2       71.9271   57.0076   37.6801 dc         1 CLA      0.064300
     68 HMD1       72.9095   55.5198   37.3104 dc         1 CLA      0.064300
     69 HMC3       75.8518   61.4477   44.6332 dc         1 CLA      0.052100
     70 HMC2       74.7964   60.0966   45.1601 dc         1 CLA      0.052100
     71 HMC1       76.3820   59.6956   44.9575 dc         1 CLA      0.052100
     72 HMB3       82.7559   62.8968   41.1568 dc         1 CLA      0.063600
     73 HMB2       82.9883   61.5051   40.0561 dc         1 CLA      0.063600
     74 HMB1       82.0713   63.0198   39.5088 dc         1 CLA      0.063600
     75 HMA3       82.0110   57.3570   37.8361 dc         1 CLA      0.058300
     76 HMA2       82.8379   57.4820   36.2515 dc         1 CLA      0.058300
     77 HMA1       83.0841   58.6691   37.4577 dc         1 CLA      0.058300
     78 HED3       78.8059   52.8922   35.0577 dc         1 CLA      0.079300
     79 HED2       79.7432   53.4643   36.4147 dc         1 CLA      0.079300
     80 HED1       78.1322   52.5489   36.6513 dc         1 CLA      0.079300
     81 HBC3       74.1728   56.7477   42.4418 dc         1 CLA      0.016300
     82 HBC2       73.9834   56.7466   44.2000 dc         1 CLA      0.016300
     83 HBC1       72.5350   56.5076   43.1828 dc         1 CLA      0.016300
     84 HBB2       81.1740   63.9713   44.3427 da         1 CLA      0.183000
     85 HBB1       81.5066   64.2324   42.5023 da         1 CLA      0.183000
     86 HBA2       81.2791   58.2420   32.4690 dc         1 CLA      0.029400
     87 HBA1       82.1857   58.3579   33.9377 dc         1 CLA      0.029400
     88 HAC2       73.1621   58.9688   44.0833 dc         1 CLA      0.029300
     89 HAC1       72.3512   58.6359   42.5578 dc         1 CLA      0.029300
     90 HAA2       79.0874   57.7908   33.7298 dc         1 CLA      0.028700
     91 HAA1       79.7771   59.2724   34.0848 dc         1 CLA      0.028700
     92 H203       88.1215   55.7748   48.1969 dc         1 CLA      0.065600
     93 H202       89.7076   56.1840   47.5991 dc         1 CLA      0.065600
     94 H201       88.8398   57.2255   48.7308 dc         1 CLA      0.065600
     95 H193       86.2032   58.5305   46.6059 dc         1 CLA      0.065600
     96 H192       86.0240   56.9034   47.3178 dc         1 CLA      0.065600
     97 H191       86.7601   58.2123   48.3147 dc         1 CLA      0.065600
     98 H172       87.7539   57.7524   44.6859 dc         1 CLA      0.027600
     99 H171       87.4518   56.1218   45.2433 dc         1 CLA      0.027600
    100 H162       89.8735   55.5950   45.4904 dc         1 CLA      0.002900
    101 H161       90.2241   57.3615   45.0432 dc         1 CLA      0.002900
    102 H152       88.8249   55.2928   43.3273 dc         1 CLA      0.029100
    103 H151       90.6219   55.6545   43.2998 dc         1 CLA      0.029100
    104 H143       90.4966   58.8071   41.5567 dc         1 CLA      0.063600
    105 H142       90.9983   58.5354   43.1670 dc         1 CLA      0.063600
    106 H141       91.5395   57.4456   41.8730 dc         1 CLA      0.063600
    107 H122       87.9583   56.2093   41.3673 dc         1 CLA      0.032500
    108 H121       89.4763   55.8250   40.7731 dc         1 CLA      0.032500
    109 H112       89.6020   57.8338   39.5564 dc         1 CLA      0.006600
    110 H111       87.9772   58.2842   40.2993 dc         1 CLA      0.006600
    111 H102       87.1500   56.1426   39.0912 dc         1 CLA      0.024100
    112 H101       88.6277   56.0694   38.1778 dc         1 CLA      0.024100
    113 HHD        73.2321   57.8475   40.1554 da         1 CLA      0.174300
    114 HHC        77.7353   61.4574   43.2423 da         1 CLA      0.136800
    115 HHB        81.8109   60.4599   38.3573 da         1 CLA      0.138300
    116 HBD        76.7867   57.0469   34.2798 dc         1 CLA      0.107700
    117 HAB        79.6233   62.1060   43.8264 da         1 CLA      0.155200
    118 H93        88.1814   59.4066   38.2113 dc         1 CLA      0.069500
    119 H92        89.0048   58.5828   36.8050 dc         1 CLA      0.069500
    120 H91        87.4560   59.5047   36.5829 dc         1 CLA      0.069500
    121 H8         86.2203   57.9479   38.1458 dc         1 CLA      0.029300
    122 H72        87.6586   56.3524   35.8841 dc         1 CLA      0.044400
    123 H71        86.3291   57.4729   35.8138 dc         1 CLA      0.044400
    124 H62        84.9222   56.2953   36.9332 dc         1 CLA      0.015600
    125 H61        86.0660   55.1206   37.5882 dc         1 CLA      0.015600
    126 H52        86.5452   54.1395   35.4957 dc         1 CLA      0.033200
    127 H51        85.4135   55.1733   34.6504 dc         1 CLA      0.033200
    128 H43        85.7306   52.2312   36.6271 dc         1 CLA      0.037000
    129 H42        84.0814   51.7350   36.1286 dc         1 CLA      0.037000
    130 H41        85.3268   52.0050   34.8814 dc         1 CLA      0.037000
    131 H3A        81.4196   59.6138   35.8513 dc         1 CLA      0.041100
    132 H2A        80.0513   56.8139   35.8276 dc         1 CLA      0.083100
    133 H2         82.7001   54.5984   36.6463 da         1 CLA      0.180900
    134 H18        88.6207   58.4040   46.9299 dc         1 CLA     -0.003900
    135 H13        88.4948   57.8988   42.7211 dc         1 CLA      0.019700
    136 H12        81.3137   53.9755   34.7201 dc         1 CLA      0.120400
    137 H11        82.6539   53.8325   33.7378 dc         1 CLA      0.120400
    138 C1         69.9349   61.3303   50.4761 Z1         2 LUT      0.509236
    139 C2         69.5289   62.1882   51.7189 Z2         2 LUT     -0.434695
    140 C3         68.0017   62.4938   51.7216 Z3         2 LUT      0.437453
    141 O3         67.5745   63.2210   52.9157 S1         2 LUT     -0.547129
    142 C4         67.7908   63.3260   50.5197 Z4         2 LUT     -0.468603
    143 C5         68.5286   62.8821   49.2485 Z5         2 LUT      0.279246
    144 C6         69.4754   61.9237   49.2305 Z6         2 LUT     -0.305473
    145 C7         70.0716   61.5174   47.8643 Z7         2 LUT      0.069402
    146 C8         70.7862   62.4117   47.0699 Z8         2 LUT     -0.191631
    147 C9         71.4017   62.2629   45.8327 Z9         2 LUT      0.196698
    148 C10        72.2655   63.1955   45.4126 Y1         2 LUT     -0.208611
    149 C11        73.0058   63.1414   44.1657 Y2         2 LUT      0.030784
    150 C12        74.0612   63.9253   43.8261 Y3         2 LUT     -0.220316
    151 C13        74.8525   63.9015   42.6244 Y4         2 LUT      0.215937
    152 C14        76.0558   64.6160   42.5118 Y5         2 LUT     -0.185793
    153 C15        77.0642   64.6871   41.4982 Y6         2 LUT     -0.057835
    154 C16        69.2293   59.9092   50.5988 Y7         2 LUT     -0.405615
    155 C17        71.5253   60.9645   50.4592 Y7         2 LUT     -0.405615
    156 C18        68.1197   63.8549   48.1885 Y9         2 LUT     -0.369639
    157 C19        70.9055   61.0434   45.0908 W1         2 LUT     -0.333362
    158 C20        74.3280   63.2553   41.4641 W2         2 LUT     -0.323439
    159 C21        88.4975   66.4402   35.1611 Z1         2 LUT      0.406104
    160 C22        89.0936   65.7791   33.9027 Z2         2 LUT     -0.404965
    161 C23        88.8802   66.6199   32.5910 Z3         2 LUT      0.391255
    162 O23        89.1643   65.6852   31.5009 S1         2 LUT     -0.528210
    163 C24        87.5145   67.2244   32.5069 W6         2 LUT     -0.258361
    164 C25        86.6201   67.3746   33.5207 Z5         2 LUT      0.133546
    165 C26        86.9242   66.6977   34.8368 W8         2 LUT     -0.147008
    166 C27        86.2151   67.2967   36.0623 Z7         2 LUT      0.023843
    167 C28        84.9417   67.1176   36.5234 Z8         2 LUT     -0.216987
    168 C29        84.3540   67.3607   37.8422 Z9         2 LUT      0.206524
    169 C30        83.2498   66.6952   38.2607 Y1         2 LUT     -0.215556
    170 C31        82.4445   66.7985   39.4379 Y2         2 LUT      0.025142
    171 C32        81.2054   66.2538   39.6311 Y3         2 LUT     -0.212209
    172 C33        80.4584   66.1720   40.8910 Y4         2 LUT      0.240937
    173 C34        79.3312   65.4074   40.9028 Y5         2 LUT     -0.218862
    174 C35        78.2728   65.3083   41.8159 Y6         2 LUT     -0.023547
    175 C36        89.2244   67.7690   35.4749 Y7         2 LUT     -0.393485
    176 C37        88.8920   65.4770   36.3366 Y7         2 LUT     -0.393485
    177 C38        85.1495   67.8843   33.2918 Y9         2 LUT     -0.387526
    178 C39        85.1060   68.3094   38.8303 W1         2 LUT     -0.322618
    179 C40        81.0145   66.9870   42.0373 W2         2 LUT     -0.358472
    180 H403       80.9956   68.0443   41.9394 R7         2 LUT      0.097720
    181 H402       80.3501   66.8621   42.9128 R7         2 LUT      0.097720
    182 H401       82.0799   66.6482   42.2475 R7         2 LUT      0.097720
    183 H393       85.9311   67.7653   39.4742 R4         2 LUT      0.082505
    184 H392       85.5670   69.0325   38.2138 R4         2 LUT      0.082505
    185 H391       84.3873   68.8342   39.5088 R4         2 LUT      0.082505
    186 H383       84.4604   67.1753   32.7799 R1         2 LUT      0.104030
    187 H382       84.6059   68.2263   34.1765 R1         2 LUT      0.104030
    188 H381       85.0695   68.6618   32.5400 R1         2 LUT      0.104030
    189 H373       89.9294   65.4843   36.5094 T4         2 LUT      0.089537
    190 H372       88.5468   65.8414   37.2845 T4         2 LUT      0.089537
    191 H371       88.5010   64.4420   36.1937 T4         2 LUT      0.089537
    192 H363       88.8000   68.3682   36.3364 T4         2 LUT      0.089537
    193 H362       90.2974   67.6110   35.4774 T4         2 LUT      0.089537
    194 H361       89.0842   68.4008   34.6101 T4         2 LUT      0.089537
    195 H222       90.1829   65.6291   34.0335 U2         2 LUT      0.127376
    196 H221       88.6801   64.7978   33.7407 U2         2 LUT      0.127376
    197 H203       73.4326   63.8193   41.1551 R7         2 LUT      0.087068
    198 H202       75.0947   63.2433   40.7173 R7         2 LUT      0.087068
    199 H201       73.9824   62.2605   41.7173 R7         2 LUT      0.087068
    200 H193       71.0522   61.0768   44.0318 R4         2 LUT      0.089716
    201 H192       71.5141   60.1620   45.3401 R4         2 LUT      0.089716
    202 H191       69.8989   60.7286   45.2518 R4         2 LUT      0.089716
    203 H183       69.0215   64.3424   47.7620 R1         2 LUT      0.094572
    204 H182       67.6031   63.2793   47.4405 R1         2 LUT      0.094572
    205 H181       67.4151   64.5913   48.3900 R1         2 LUT      0.094572
    206 H173       72.1109   61.9333   50.5489 T4         2 LUT      0.093752
    207 H172       71.8347   60.4227   51.3626 T4         2 LUT      0.093752
    208 H171       71.7784   60.3760   49.6255 T4         2 LUT      0.093752
    209 H163       69.5969   59.2777   51.3744 T4         2 LUT      0.093752
    210 H162       68.1805   59.9694   50.6653 T4         2 LUT      0.093752
    211 H161       69.4379   59.4949   49.6701 T4         2 LUT      0.093752
    212 HO3        67.1423   62.6194   53.6039 Q1         2 LUT      0.300121
    213 H8         70.9858   63.4001   47.4637 U7         2 LUT      0.080784
    214 H7         70.0192   60.5375   47.4705 U6         2 LUT      0.042190
    215 H42        66.7628   63.5003   50.2395 U5         2 LUT      0.145166
    216 H41        68.1219   64.3817   50.7191 U5         2 LUT      0.145166
    217 H35        78.4514   65.7103   42.8729 T3         2 LUT      0.077919
    218 H34        79.0513   64.9232   40.0182 T2         2 LUT      0.073626
    219 H32        80.7398   65.6794   38.7969 T1         2 LUT      0.092510
    220 H31        82.9535   67.2682   40.2649 U9         2 LUT      0.070048
    221 H30        82.8291   66.1061   37.4316 U8         2 LUT      0.085442
    222 H3         67.3789   61.6385   51.7290 U3         2 LUT     -0.031596
    223 H28        84.2660   66.5962   35.8503 U7         2 LUT      0.084728
    224 H27        86.9022   67.8110   36.7051 U6         2 LUT      0.087291
    225 H26        86.5530   65.7160   34.7064 Q6         2 LUT      0.075325
    226 H24        87.1971   67.5463   31.5204 Q5         2 LUT      0.094482
    227 H23        89.4564   67.5296   32.4155 U3         2 LUT     -0.024869
    228 H22        69.8014   61.5508   52.6242 U2         2 LUT      0.127376
    229 H21        70.1475   63.0913   51.6799 U2         2 LUT      0.127376
    230 H15        76.9298   64.1862   40.5526 T3         2 LUT      0.093200
    231 H14        76.3019   65.2931   43.3738 T2         2 LUT      0.068865
    232 H12        74.3547   64.6118   44.5685 T1         2 LUT      0.095507
    233 H11        72.7753   62.3227   43.5165 U9         2 LUT      0.068930
    234 H10        72.6119   64.0188   46.0622 U8         2 LUT      0.083911
    235 H1         89.2604   66.1187   30.6749 Q1         2 LUT      0.297311
@<TRIPOS>BOND
    1     6     1 1
    2     7     2 1
    3     8     3 1
    4     9     4 1
    5    11     4 1
    6    12     6 1
    7    13     9 1
    8    16     9 1
    9    25     5 1
   10    25    16 1
   11    26    10 1
   12    26    17 1
   13    27    18 1
   14    28    14 1
   15    28    19 1
   16    29    12 1
   17    30    13 1
   18    31    24 1
   19    32     1 1
   20    32    25 1
   21    33    21 1
   22    33    26 1
   23    34    22 1
   24    34    27 1
   25    35    23 1
   26    35    28 1
   27    36    12 1
   28    36    24 1
   29    37    13 1
   30    37    15 1
   31    38    31 1
   32    39    20 1
   33    39    32 1
   34    40     2 1
   35    40    33 1
   36    41     3 1
   37    41    34 1
   38    42     4 1
   39    42    35 1
   40    43    38 1
   41    44     5 1
   42    44    17 1
   43    44    39 1
   44    45    10 1
   45    45    18 1
   46    45    40 1
   47    46    19 1
   48    46    41 1
   49    47    14 1
   50    47    16 1
   51    47    42 1
   52    48    38 1
   53    49    48 1
   54    50    49 1
   55    51    50 1
   56    52    51 1
   57    53    51 1
   58    54    53 1
   59    55    54 1
   60    56    55 1
   61    57    56 1
   62    58    56 1
   63    59    58 1
   64    60    59 1
   65    61    60 1
   66    62    61 1
   67    63    61 1
   68    64    27 1
   69    64    46 1
   70    65     5 1
   71    65    10 1
   72    65    64 1
   73    65    14 1
   74    66    23 1
   75    67    23 1
   76    68    23 1
   77    69    22 1
   78    70    22 1
   79    71    22 1
   80    72    21 1
   81    73    21 1
   82    74    21 1
   83    75    20 1
   84    76    20 1
   85    77    20 1
   86    78    15 1
   87    79    15 1
   88    80    15 1
   89    81     8 1
   90    82     8 1
   91    83     8 1
   92    84     7 1
   93    85     7 1
   94    86     6 1
   95    87     6 1
   96    88     3 1
   97    89     3 1
   98    90     1 1
   99    91     1 1
  100    92    63 1
  101    93    63 1
  102    94    63 1
  103    95    62 1
  104    96    62 1
  105    97    62 1
  106    98    60 1
  107    99    60 1
  108   100    59 1
  109   101    59 1
  110   102    58 1
  111   103    58 1
  112   104    57 1
  113   105    57 1
  114   106    57 1
  115   107    55 1
  116   108    55 1
  117   109    54 1
  118   110    54 1
  119   111    53 1
  120   112    53 1
  121   113    19 1
  122   114    18 1
  123   115    17 1
  124   116     9 1
  125   117     2 1
  126   118    52 1
  127   119    52 1
  128   120    52 1
  129   121    51 1
  130   122    50 1
  131   123    50 1
  132   124    49 1
  133   125    49 1
  134   126    48 1
  135   127    48 1
  136   128    43 1
  137   129    43 1
  138   130    43 1
  139   131    39 1
  140   132    32 1
  141   133    31 1
  142   134    61 1
  143   135    56 1
  144   136    24 1
  145   137    24 1
  146   139   138 1
  147   140   139 1
  148   141   140 1
  149   142   140 1
  150   143   142 1
  151   144   138 1
  152   144   143 1
  153   145   144 1
  154   146   145 1
  155   147   146 1
  156   148   147 1
  157   149   148 1
  158   150   149 1
  159   151   150 1
  160   152   151 1
  161   153   152 1
  162   154   138 1
  163   155   138 1
  164   156   143 1
  165   157   147 1
  166   158   151 1
  167   160   159 1
  168   161   160 1
  169   162   161 1
  170   163   161 1
  171   164   163 1
  172   165   159 1
  173   165   164 1
  174   166   165 1
  175   167   166 1
  176   168   167 1
  177   169   168 1
  178   170   169 1
  179   171   170 1
  180   172   171 1
  181   173   172 1
  182   174   153 1
  183   174   173 1
  184   175   159 1
  185   176   159 1
  186   177   164 1
  187   178   168 1
  188   179   172 1
  189   180   179 1
  190   181   179 1
  191   182   179 1
  192   183   178 1
  193   184   178 1
  194   185   178 1
  195   186   177 1
  196   187   177 1
  197   188   177 1
  198   189   176 1
  199   190   176 1
  200   191   176 1
  201   192   175 1
  202   193   175 1
  203   194   175 1
  204   195   160 1
  205   196   160 1
  206   197   158 1
  207   198   158 1
  208   199   158 1
  209   200   157 1
  210   201   157 1
  211   202   157 1
  212   203   156 1
  213   204   156 1
  214   205   156 1
  215   206   155 1
  216   207   155 1
  217   208   155 1
  218   209   154 1
  219   210   154 1
  220   211   154 1
  221   212   141 1
  222   213   146 1
  223   214   145 1
  224   215   142 1
  225   216   142 1
  226   217   174 1
  227   218   173 1
  228   219   171 1
  229   220   170 1
  230   221   169 1
  231   222   140 1
  232   223   167 1
  233   224   166 1
  234   225   165 1
  235   226   163 1
  236   227   161 1
  237   228   139 1
  238   229   139 1
  239   230   153 1
  240   231   152 1
  241   232   150 1
  242   233   149 1
  243   234   148 1
  244   235   162 1
  245   65    153 1
  246   65    174 1
@<TRIPOS>SUBSTRUCTURE
      1 CLA               1 ****               0 ****  **** 
      2 LUT             138 ****               0 ****  **** 
