@<TRIPOS>MOLECULE
Cpptraj generated mol2 file.
  235   246     2     0     0
SMALL
USER_CHARGES


@<TRIPOS>ATOM
      1 CAA        78.2460   58.7215   34.1535 a2         1 CLA     -0.055900
      2 CAB        78.3013   61.7993   43.3043 c8         1 CLA     -0.148500
      3 CAC        71.5237   57.5026   42.7127 a2         1 CLA     -0.012600
      4 CAD        74.2536   55.7501   35.2060 ck         1 CLA      0.398800
      5 NA         77.2360   58.8110   37.4414 ns         1 CLA     -0.225500
      6 CBA        79.5063   58.6256   33.2064 a2         1 CLA     -0.135000
      7 CBB        79.4372   61.5274   43.9987 c0         1 CLA     -0.395200
      8 CBC        71.3449   56.0552   42.3802 a3         1 CLA     -0.037700
      9 CBD        75.6609   56.4262   34.7913 a1         1 CLA     -0.053900
     10 NB         77.0152   60.2852   40.1351 nm         1 CLA     -0.295700
     11 OBD        73.7513   54.8295   34.5383 o2         1 CLA     -0.494600
     12 CGA        80.0589   57.3357   32.7232 c4         1 CLA      0.827000
     13 CGD        76.7751   55.4384   34.5596 c4         1 CLA      0.655300
     14 ND         74.4498   57.8573   38.0181 nm         1 CLA     -0.291600
     15 CED        77.6641   53.3781   35.3223 a3         1 CLA      0.005400
     16 CHA        75.8702   57.4251   35.9942 cs         1 CLA     -0.123800
     17 CHB        78.9499   60.2096   38.5541 aa         1 CLA     -0.291900
     18 CHC        75.6308   60.4147   42.0617 aa         1 CLA     -0.090400
     19 CHD        72.6335   57.4756   39.6269 aa         1 CLA     -0.052000
     20 CMA        80.6461   58.1617   36.7403 a3         1 CLA     -0.230700
     21 CMB        80.3970   61.7205   40.6951 a3         1 CLA     -0.180800
     22 CMC        73.4652   59.6260   44.1437 a3         1 CLA     -0.134000
     23 CMD        71.5337   55.5178   37.2879 a3         1 CLA     -0.141100
     24 C1         80.9682   55.2042   33.4423 a2         1 CLA      0.023000
     25 C1A        77.0262   58.1949   36.2202 ac         1 CLA     -0.015100
     26 C1B        78.3398   60.5835   39.7711 cr         1 CLA      0.054700
     27 C1C        74.5153   59.7032   41.7143 cn         1 CLA     -0.005600
     28 C1D        73.2200   57.2386   38.3606 ap         1 CLA     -0.047300
     29 O1A        80.1004   56.9072   31.5763 o2         1 CLA     -0.610800
     30 O1D        77.5266   55.4666   33.5597 o2         1 CLA     -0.558200
     31 C2         81.4673   54.6754   34.8127 c8         1 CLA     -0.325100
     32 C2A        78.3292   58.1218   35.5369 a1         1 CLA      0.098600
     33 C2B        79.0273   61.2696   40.8483 cb         1 CLA      0.088500
     34 C2C        73.4736   59.2487   42.6867 cb         1 CLA      0.053700
     35 C2D        72.7379   56.3613   37.3147 cb         1 CLA      0.058900
     36 O2A        80.6018   56.6119   33.7374 o1         1 CLA     -0.437200
     37 O2D        76.7649   54.4635   35.5757 o1         1 CLA     -0.357600
     38 C3         82.5307   53.8633   34.7944 c5         1 CLA      0.031200
     39 C3A        79.3412   58.9625   36.3643 a1         1 CLA      0.166800
     40 C3B        78.0633   61.2981   41.9430 cb         1 CLA      0.035000
     41 C3C        72.6745   58.3207   42.0367 cb         1 CLA     -0.089900
     42 C3D        73.8018   56.4130   36.3765 cb         1 CLA     -0.035900
     43 C4         82.3049   52.3553   34.8386 a3         1 CLA     -0.053300
     44 C4A        78.3988   59.4346   37.5296 ac         1 CLA      0.001800
     45 C4B        76.8621   60.6841   41.4261 cn         1 CLA     -0.020900
     46 C4C        73.2005   58.2919   40.6532 cr         1 CLA     -0.044400
     47 C4D        74.7858   57.3211   36.8475 c6         1 CLA     -0.046000
     48 C5         83.8796   54.4265   34.4816 a2         1 CLA     -0.070400
     49 C6         84.1503   55.8436   34.9270 a2         1 CLA      0.043900
     50 C7         84.1860   55.9103   36.4744 a2         1 CLA     -0.150000
     51 C8         84.3911   57.3505   37.0689 a1         1 CLA      0.064200
     52 C9         85.5879   58.1097   36.4427 a3         1 CLA     -0.259300
     53 C10        84.5297   57.3090   38.5620 a2         1 CLA     -0.071900
     54 C11        83.3950   56.7371   39.4360 a2         1 CLA      0.014500
     55 C12        83.7062   56.8049   40.9255 a2         1 CLA     -0.112100
     56 C13        82.7116   56.2459   42.0141 a1         1 CLA      0.089200
     57 C14        81.3839   56.9291   42.0149 a3         1 CLA     -0.239100
     58 C15        83.2682   56.1441   43.5237 a2         1 CLA     -0.102200
     59 C16        83.3944   57.4445   44.3689 a2         1 CLA      0.023900
     60 C17        83.8030   57.2452   45.8706 a2         1 CLA     -0.105700
     61 C18        84.1483   58.5069   46.7829 a1         1 CLA      0.206800
     62 C19        82.9288   59.3225   47.1498 a3         1 CLA     -0.280100
     63 C20        84.7603   58.1721   48.1546 a3         1 CLA     -0.280100
     64 NC         74.3435   59.0741   40.5476 nx         1 CLA     -0.309200
     65 MG         75.6969   59.1621   38.9571 mg         1 CLA      0.895000
     66 HMD3       71.3961   55.1437   38.2806 dc         1 CLA      0.064300
     67 HMD2       70.6385   56.0658   36.9260 dc         1 CLA      0.064300
     68 HMD1       71.7991   54.7418   36.5618 dc         1 CLA      0.064300
     69 HMC3       74.4898   59.4348   44.6006 dc         1 CLA      0.052100
     70 HMC2       73.3693   60.7274   44.1216 dc         1 CLA      0.052100
     71 HMC1       72.7095   59.2220   44.8081 dc         1 CLA      0.052100
     72 HMB3       80.7440   62.2218   41.5993 dc         1 CLA      0.063600
     73 HMB2       80.9497   60.7908   40.5909 dc         1 CLA      0.063600
     74 HMB1       80.5722   62.4182   39.9414 dc         1 CLA      0.063600
     75 HMA3       81.1517   58.7109   37.5662 dc         1 CLA      0.058300
     76 HMA2       80.4856   57.1822   37.1246 dc         1 CLA      0.058300
     77 HMA1       81.2603   58.1758   35.8810 dc         1 CLA      0.058300
     78 HED3       78.5876   53.7914   34.9732 dc         1 CLA      0.079300
     79 HED2       77.8382   52.8235   36.2657 dc         1 CLA      0.079300
     80 HED1       77.3406   52.7028   34.5071 dc         1 CLA      0.079300
     81 HBC3       70.9683   55.4425   43.2444 dc         1 CLA      0.016300
     82 HBC2       70.6778   55.9805   41.5505 dc         1 CLA      0.016300
     83 HBC1       72.2704   55.5394   42.1588 dc         1 CLA      0.016300
     84 HBB2       79.6123   61.9225   45.0565 da         1 CLA      0.183000
     85 HBB1       80.2988   61.0421   43.5439 da         1 CLA      0.183000
     86 HBA2       79.3725   59.2545   32.3424 dc         1 CLA      0.029400
     87 HBA1       80.3475   59.0051   33.7212 dc         1 CLA      0.029400
     88 HAC2       71.5772   57.4840   43.8452 dc         1 CLA      0.029300
     89 HAC1       70.5639   58.0807   42.4594 dc         1 CLA      0.029300
     90 HAA2       77.4176   58.2518   33.6616 dc         1 CLA      0.028700
     91 HAA1       77.8572   59.7595   34.1728 dc         1 CLA      0.028700
     92 H203       85.2324   59.0241   48.7083 dc         1 CLA      0.065600
     93 H202       84.1514   57.4891   48.7527 dc         1 CLA      0.065600
     94 H201       85.6788   57.6608   47.9079 dc         1 CLA      0.065600
     95 H193       83.2202   60.1331   47.8195 dc         1 CLA      0.065600
     96 H192       82.5716   59.7712   46.2729 dc         1 CLA      0.065600
     97 H191       82.1359   58.6188   47.6075 dc         1 CLA      0.065600
     98 H172       83.0963   56.6169   46.4138 dc         1 CLA      0.027600
     99 H171       84.6518   56.5657   45.8116 dc         1 CLA      0.027600
    100 H162       84.2256   58.0279   43.8720 dc         1 CLA      0.002900
    101 H161       82.4469   57.9689   44.3761 dc         1 CLA      0.002900
    102 H152       82.5434   55.4339   44.0413 dc         1 CLA      0.029100
    103 H151       84.2719   55.6672   43.5161 dc         1 CLA      0.029100
    104 H143       81.5733   57.9871   41.8571 dc         1 CLA      0.063600
    105 H142       80.8379   56.5062   41.1556 dc         1 CLA      0.063600
    106 H141       80.8234   56.7084   42.9119 dc         1 CLA      0.063600
    107 H122       84.6541   56.3166   41.1345 dc         1 CLA      0.032500
    108 H121       83.9668   57.8512   41.1465 dc         1 CLA      0.032500
    109 H112       82.4283   57.2783   39.2829 dc         1 CLA      0.006600
    110 H111       83.1587   55.6971   39.1735 dc         1 CLA      0.006600
    111 H102       85.4978   56.7762   38.7247 dc         1 CLA      0.024100
    112 H101       84.7294   58.3657   38.8643 dc         1 CLA      0.024100
    113 HHD        71.7547   56.8641   39.8104 da         1 CLA      0.174300
    114 HHC        75.6680   60.7174   43.0667 da         1 CLA      0.136800
    115 HHB        79.9614   60.5082   38.3403 da         1 CLA      0.138300
    116 HBD        75.5587   57.0617   33.9178 dc         1 CLA      0.107700
    117 HAB        77.4900   62.3085   43.8137 da         1 CLA      0.155200
    118 H93        85.7158   59.1245   36.8192 dc         1 CLA      0.069500
    119 H92        86.5323   57.5991   36.7309 dc         1 CLA      0.069500
    120 H91        85.4297   58.1972   35.4264 dc         1 CLA      0.069500
    121 H8         83.4929   57.9949   36.8874 dc         1 CLA      0.029300
    122 H72        83.2579   55.4464   36.9018 dc         1 CLA      0.044400
    123 H71        85.0387   55.3237   36.7883 dc         1 CLA      0.044400
    124 H62        85.0543   56.1971   34.4457 dc         1 CLA      0.015600
    125 H61        83.3144   56.4137   34.6045 dc         1 CLA      0.015600
    126 H52        84.5522   53.6721   34.7890 dc         1 CLA      0.033200
    127 H51        83.9141   54.4177   33.4360 dc         1 CLA      0.033200
    128 H43        81.2121   52.1761   34.9332 dc         1 CLA      0.037000
    129 H42        82.6161   51.7794   33.9161 dc         1 CLA      0.037000
    130 H41        82.7856   51.8351   35.6387 dc         1 CLA      0.037000
    131 H3A        79.6652   59.8469   35.7789 dc         1 CLA      0.041100
    132 H2A        78.6968   57.1427   35.5076 dc         1 CLA      0.083100
    133 H2         81.3036   55.2647   35.6946 da         1 CLA      0.180900
    134 H18        84.9079   59.1741   46.3595 dc         1 CLA     -0.003900
    135 H13        82.5399   55.2530   41.7655 dc         1 CLA      0.019700
    136 H12        80.0971   54.6376   33.2100 dc         1 CLA      0.120400
    137 H11        81.7084   54.9789   32.6799 dc         1 CLA      0.120400
    138 C1         68.4244   61.3114   49.0304 Z1         2 LUT      0.509236
    139 C2         67.1258   60.9211   49.8908 Z2         2 LUT     -0.434695
    140 C3         66.3982   61.9540   50.5684 Z3         2 LUT      0.437453
    141 O3         66.9195   62.3825   51.8325 S1         2 LUT     -0.547129
    142 C4         66.2401   63.2183   49.6992 Z4         2 LUT     -0.468603
    143 C5         66.9278   63.1841   48.3256 Z5         2 LUT      0.279246
    144 C6         67.8993   62.3195   47.9660 Z6         2 LUT     -0.305473
    145 C7         68.3367   61.9641   46.6177 Z7         2 LUT      0.069402
    146 C8         69.5511   62.1486   46.1028 Z8         2 LUT     -0.191631
    147 C9         70.0366   62.0994   44.6968 Z9         2 LUT      0.196698
    148 C10        71.1040   62.9000   44.4037 Y1         2 LUT     -0.208611
    149 C11        71.7301   62.9303   43.0874 Y2         2 LUT      0.030784
    150 C12        72.9044   63.5519   42.8861 Y3         2 LUT     -0.220316
    151 C13        73.8873   63.4862   41.7195 Y4         2 LUT      0.215937
    152 C14        75.1541   63.9939   41.8344 Y5         2 LUT     -0.185793
    153 C15        76.2626   63.9923   40.9322 Y6         2 LUT     -0.057835
    154 C16        69.0545   59.9488   48.5166 Y7         2 LUT     -0.405615
    155 C17        69.5680   61.8734   49.9293 Y7         2 LUT     -0.405615
    156 C18        66.2876   64.0539   47.2534 Y9         2 LUT     -0.369639
    157 C19        69.3914   61.1922   43.7412 W1         2 LUT     -0.333362
    158 C20        73.3930   62.9798   40.3888 W2         2 LUT     -0.323439
    159 C21        87.1691   65.3700   34.6336 Z1         2 LUT      0.406104
    160 C22        88.0832   64.9641   33.4406 Z2         2 LUT     -0.404965
    161 C23        88.2855   66.1570   32.4914 Z3         2 LUT      0.391255
    162 O23        88.9357   65.6207   31.2836 S1         2 LUT     -0.528210
    163 C24        86.9982   66.8789   32.1954 W6         2 LUT     -0.258361
    164 C25        85.8930   66.8616   32.9300 Z5         2 LUT      0.133546
    165 C26        85.7868   65.8996   34.1903 W8         2 LUT     -0.147008
    166 C27        84.9427   66.4758   35.3245 Z7         2 LUT      0.023843
    167 C28        83.9281   65.9807   36.1011 Z8         2 LUT     -0.216987
    168 C29        83.4473   66.3887   37.4385 Z9         2 LUT      0.206524
    169 C30        82.4073   65.6463   37.9731 Y1         2 LUT     -0.215556
    170 C31        81.7055   65.8907   39.2397 Y2         2 LUT      0.025142
    171 C32        80.5746   65.2934   39.5101 Y3         2 LUT     -0.212209
    172 C33        79.6793   65.3792   40.6168 Y4         2 LUT      0.240937
    173 C34        78.4897   64.7863   40.3645 Y5         2 LUT     -0.218862
    174 C35        77.3801   64.6569   41.2515 Y6         2 LUT     -0.023547
    175 C36        87.9683   66.2752   35.5251 Y7         2 LUT     -0.393485
    176 C37        86.9909   64.0840   35.4692 Y7         2 LUT     -0.393485
    177 C38        84.6970   67.5582   32.5130 Y9         2 LUT     -0.387526
    178 C39        84.2342   67.5525   38.1362 W1         2 LUT     -0.322618
    179 C40        79.9573   66.1970   41.8978 W2         2 LUT     -0.358472
    180 H403       81.0057   66.2070   42.1002 R7         2 LUT      0.097720
    181 H402       79.6848   67.2618   41.7214 R7         2 LUT      0.097720
    182 H401       79.4378   65.9318   42.8205 R7         2 LUT      0.097720
    183 H393       85.2948   67.4264   38.1048 R4         2 LUT      0.082505
    184 H392       84.1094   68.5014   37.6421 R4         2 LUT      0.082505
    185 H391       83.9450   67.7595   39.2024 R4         2 LUT      0.082505
    186 H383       84.6356   67.8416   31.4315 R1         2 LUT      0.104030
    187 H382       83.7382   67.0388   32.6984 R1         2 LUT      0.104030
    188 H381       84.5300   68.3961   33.1285 R1         2 LUT      0.104030
    189 H373       87.9156   63.6616   35.8382 T4         2 LUT      0.089537
    190 H372       86.3801   64.3585   36.3074 T4         2 LUT      0.089537
    191 H371       86.3864   63.3375   34.9397 T4         2 LUT      0.089537
    192 H363       88.9330   65.8039   35.6742 T4         2 LUT      0.089537
    193 H362       88.1618   67.2949   35.1594 T4         2 LUT      0.089537
    194 H361       87.4746   66.3634   36.4882 T4         2 LUT      0.089537
    195 H222       89.1681   64.7937   33.7210 U2         2 LUT      0.127376
    196 H221       87.7889   64.0578   32.8629 U2         2 LUT      0.127376
    197 H203       72.6411   62.1992   40.5087 R7         2 LUT      0.087068
    198 H202       72.8358   63.6750   39.8473 R7         2 LUT      0.087068
    199 H201       74.0062   62.5221   39.7247 R7         2 LUT      0.087068
    200 H193       70.0869   60.6306   43.0953 R4         2 LUT      0.089716
    201 H192       68.7350   60.3996   44.1452 R4         2 LUT      0.089716
    202 H191       68.7944   61.7575   43.0540 R4         2 LUT      0.089716
    203 H183       65.4648   64.6516   47.6681 R1         2 LUT      0.094572
    204 H182       67.0166   64.6661   46.8251 R1         2 LUT      0.094572
    205 H181       65.8471   63.4714   46.4495 R1         2 LUT      0.094572
    206 H173       69.8725   61.2117   50.8280 T4         2 LUT      0.093752
    207 H172       70.4726   62.1504   49.3125 T4         2 LUT      0.093752
    208 H171       69.1505   62.7719   50.4584 T4         2 LUT      0.093752
    209 H163       69.9535   60.0937   47.9556 T4         2 LUT      0.093752
    210 H162       69.3455   59.4407   49.3808 T4         2 LUT      0.093752
    211 H161       68.4187   59.4407   47.8102 T4         2 LUT      0.093752
    212 HO3        66.5998   61.7857   52.5754 Q1         2 LUT      0.300121
    213 H8         70.1644   62.6066   46.9111 U7         2 LUT      0.080784
    214 H7         67.6226   61.6474   45.8342 U6         2 LUT      0.042190
    215 H42        65.1900   63.2663   49.4528 U5         2 LUT      0.145166
    216 H41        66.3930   64.1765   50.2574 U5         2 LUT      0.145166
    217 H35        77.2503   65.0675   42.2174 T3         2 LUT      0.077919
    218 H34        78.3884   64.1889   39.4329 T2         2 LUT      0.073626
    219 H32        80.2109   64.7533   38.5934 T1         2 LUT      0.092510
    220 H31        82.0404   66.6941   39.9356 U9         2 LUT      0.070048
    221 H30        81.8987   64.8505   37.2445 U8         2 LUT      0.085442
    222 H3         65.3836   61.5832   50.6815 U3         2 LUT     -0.031596
    223 H28        83.3712   65.1356   35.7034 U7         2 LUT      0.084728
    224 H27        85.3917   67.4221   35.7219 U6         2 LUT      0.087291
    225 H26        85.2968   65.0908   33.6642 Q6         2 LUT      0.075325
    226 H24        86.9835   67.5427   31.3122 Q5         2 LUT      0.094482
    227 H23        88.8311   66.9340   32.9421 U3         2 LUT     -0.024869
    228 H22        66.3510   60.6251   49.1928 U2         2 LUT      0.127376
    229 H21        67.4397   60.0839   50.5610 U2         2 LUT      0.127376
    230 H15        76.1937   63.4192   39.9650 T3         2 LUT      0.093200
    231 H14        75.3808   64.3987   42.8866 T2         2 LUT      0.068865
    232 H12        73.2830   63.9757   43.8152 T1         2 LUT      0.095507
    233 H11        71.3939   62.3319   42.2213 U9         2 LUT      0.068930
    234 H10        71.5031   63.5052   45.2219 U8         2 LUT      0.083911
    235 H1         88.3396   65.4310   30.5553 Q1         2 LUT      0.297311
@<TRIPOS>BOND
    1     6     1 1
    2     7     2 1
    3     8     3 1
    4     9     4 1
    5    11     4 1
    6    12     6 1
    7    13     9 1
    8    16     9 1
    9    25     5 1
   10    25    16 1
   11    26    10 1
   12    26    17 1
   13    27    18 1
   14    28    14 1
   15    28    19 1
   16    29    12 1
   17    30    13 1
   18    31    24 1
   19    32     1 1
   20    32    25 1
   21    33    21 1
   22    33    26 1
   23    34    22 1
   24    34    27 1
   25    35    23 1
   26    35    28 1
   27    36    12 1
   28    36    24 1
   29    37    13 1
   30    37    15 1
   31    38    31 1
   32    39    20 1
   33    39    32 1
   34    40     2 1
   35    40    33 1
   36    41     3 1
   37    41    34 1
   38    42     4 1
   39    42    35 1
   40    43    38 1
   41    44     5 1
   42    44    17 1
   43    44    39 1
   44    45    10 1
   45    45    18 1
   46    45    40 1
   47    46    19 1
   48    46    41 1
   49    47    14 1
   50    47    16 1
   51    47    42 1
   52    48    38 1
   53    49    48 1
   54    50    49 1
   55    51    50 1
   56    52    51 1
   57    53    51 1
   58    54    53 1
   59    55    54 1
   60    56    55 1
   61    57    56 1
   62    58    56 1
   63    59    58 1
   64    60    59 1
   65    61    60 1
   66    62    61 1
   67    63    61 1
   68    64    27 1
   69    64    46 1
   70    65     5 1
   71    65    10 1
   72    65    64 1
   73    65    14 1
   74    66    23 1
   75    67    23 1
   76    68    23 1
   77    69    22 1
   78    70    22 1
   79    71    22 1
   80    72    21 1
   81    73    21 1
   82    74    21 1
   83    75    20 1
   84    76    20 1
   85    77    20 1
   86    78    15 1
   87    79    15 1
   88    80    15 1
   89    81     8 1
   90    82     8 1
   91    83     8 1
   92    84     7 1
   93    85     7 1
   94    86     6 1
   95    87     6 1
   96    88     3 1
   97    89     3 1
   98    90     1 1
   99    91     1 1
  100    92    63 1
  101    93    63 1
  102    94    63 1
  103    95    62 1
  104    96    62 1
  105    97    62 1
  106    98    60 1
  107    99    60 1
  108   100    59 1
  109   101    59 1
  110   102    58 1
  111   103    58 1
  112   104    57 1
  113   105    57 1
  114   106    57 1
  115   107    55 1
  116   108    55 1
  117   109    54 1
  118   110    54 1
  119   111    53 1
  120   112    53 1
  121   113    19 1
  122   114    18 1
  123   115    17 1
  124   116     9 1
  125   117     2 1
  126   118    52 1
  127   119    52 1
  128   120    52 1
  129   121    51 1
  130   122    50 1
  131   123    50 1
  132   124    49 1
  133   125    49 1
  134   126    48 1
  135   127    48 1
  136   128    43 1
  137   129    43 1
  138   130    43 1
  139   131    39 1
  140   132    32 1
  141   133    31 1
  142   134    61 1
  143   135    56 1
  144   136    24 1
  145   137    24 1
  146   139   138 1
  147   140   139 1
  148   141   140 1
  149   142   140 1
  150   143   142 1
  151   144   138 1
  152   144   143 1
  153   145   144 1
  154   146   145 1
  155   147   146 1
  156   148   147 1
  157   149   148 1
  158   150   149 1
  159   151   150 1
  160   152   151 1
  161   153   152 1
  162   154   138 1
  163   155   138 1
  164   156   143 1
  165   157   147 1
  166   158   151 1
  167   160   159 1
  168   161   160 1
  169   162   161 1
  170   163   161 1
  171   164   163 1
  172   165   159 1
  173   165   164 1
  174   166   165 1
  175   167   166 1
  176   168   167 1
  177   169   168 1
  178   170   169 1
  179   171   170 1
  180   172   171 1
  181   173   172 1
  182   174   153 1
  183   174   173 1
  184   175   159 1
  185   176   159 1
  186   177   164 1
  187   178   168 1
  188   179   172 1
  189   180   179 1
  190   181   179 1
  191   182   179 1
  192   183   178 1
  193   184   178 1
  194   185   178 1
  195   186   177 1
  196   187   177 1
  197   188   177 1
  198   189   176 1
  199   190   176 1
  200   191   176 1
  201   192   175 1
  202   193   175 1
  203   194   175 1
  204   195   160 1
  205   196   160 1
  206   197   158 1
  207   198   158 1
  208   199   158 1
  209   200   157 1
  210   201   157 1
  211   202   157 1
  212   203   156 1
  213   204   156 1
  214   205   156 1
  215   206   155 1
  216   207   155 1
  217   208   155 1
  218   209   154 1
  219   210   154 1
  220   211   154 1
  221   212   141 1
  222   213   146 1
  223   214   145 1
  224   215   142 1
  225   216   142 1
  226   217   174 1
  227   218   173 1
  228   219   171 1
  229   220   170 1
  230   221   169 1
  231   222   140 1
  232   223   167 1
  233   224   166 1
  234   225   165 1
  235   226   163 1
  236   227   161 1
  237   228   139 1
  238   229   139 1
  239   230   153 1
  240   231   152 1
  241   232   150 1
  242   233   149 1
  243   234   148 1
  244   235   162 1
  245   65    153 1
  246   65    174 1
@<TRIPOS>SUBSTRUCTURE
      1 CLA               1 ****               0 ****  **** 
      2 LUT             138 ****               0 ****  **** 
