@<TRIPOS>MOLECULE
Cpptraj generated mol2 file.
  235   246     2     0     0
SMALL
USER_CHARGES


@<TRIPOS>ATOM
      1 CAA        78.1560   58.0449   35.4395 a2         1 CLA     -0.055900
      2 CAB        77.5695   61.9866   44.4891 c8         1 CLA     -0.148500
      3 CAC        71.1024   57.3311   43.8269 a2         1 CLA     -0.012600
      4 CAD        74.1000   55.2683   36.5127 ck         1 CLA      0.398800
      5 NA         76.9923   58.6450   38.8111 ns         1 CLA     -0.225500
      6 CBA        79.4334   58.0188   34.5245 a2         1 CLA     -0.135000
      7 CBB        78.7152   62.1521   45.2254 c0         1 CLA     -0.395200
      8 CBC        71.1804   55.7670   43.8322 a3         1 CLA     -0.037700
      9 CBD        75.5026   55.8792   36.2907 a1         1 CLA     -0.053900
     10 NB         76.6408   60.0780   41.4284 nm         1 CLA     -0.295700
     11 OBD        73.5369   54.3721   35.7964 o2         1 CLA     -0.494600
     12 CGA        80.1356   56.5997   34.3676 c4         1 CLA      0.827000
     13 CGD        76.5556   54.7675   36.4163 c4         1 CLA      0.655300
     14 ND         74.2040   57.4889   39.3191 nm         1 CLA     -0.291600
     15 CED        77.8944   53.3997   37.8693 a3         1 CLA      0.005400
     16 CHA        75.7814   56.9482   37.4476 cs         1 CLA     -0.123800
     17 CHB        78.5612   60.2266   39.8274 aa         1 CLA     -0.291900
     18 CHC        75.2521   60.1350   43.4529 aa         1 CLA     -0.090400
     19 CHD        72.3585   57.3134   40.8215 aa         1 CLA     -0.052000
     20 CMA        80.4859   58.2471   38.2661 a3         1 CLA     -0.230700
     21 CMB        79.5747   62.4024   41.9845 a3         1 CLA     -0.180800
     22 CMC        72.8768   59.5844   45.3111 a3         1 CLA     -0.134000
     23 CMD        71.3820   55.0528   38.7725 a3         1 CLA     -0.141100
     24 C1         81.2198   55.0051   35.8133 a2         1 CLA      0.023000
     25 C1A        76.9856   57.7231   37.7428 ac         1 CLA     -0.015100
     26 C1B        77.8710   60.5451   41.0363 cr         1 CLA      0.054700
     27 C1C        74.1563   59.3765   43.0676 cn         1 CLA     -0.005600
     28 C1D        72.9567   56.9475   39.6511 ap         1 CLA     -0.047300
     29 O1A        79.9549   55.7849   33.4608 o2         1 CLA     -0.610800
     30 O1D        77.2832   54.4542   35.4550 o2         1 CLA     -0.558200
     31 C2         82.0582   54.9453   37.1120 c8         1 CLA     -0.325100
     32 C2A        78.2853   57.7279   36.9703 a1         1 CLA      0.098600
     33 C2B        78.3631   61.5078   42.0549 cb         1 CLA      0.088500
     34 C2C        73.1067   58.9830   44.0057 cb         1 CLA      0.053700
     35 C2D        72.6226   55.9641   38.7111 cb         1 CLA      0.058900
     36 O2A        80.8758   56.4043   35.5150 o1         1 CLA     -0.437200
     37 O2D        76.7456   54.2828   37.6803 o1         1 CLA     -0.357600
     38 C3         82.5362   53.8591   37.7447 c5         1 CLA      0.031200
     39 C3A        79.1707   58.7976   37.7512 a1         1 CLA      0.166800
     40 C3B        77.4980   61.3548   43.1330 cb         1 CLA      0.035000
     41 C3C        72.3094   58.0876   43.2658 cb         1 CLA     -0.089900
     42 C3D        73.6266   55.9637   37.7592 cb         1 CLA     -0.035900
     43 C4         81.7809   53.1134   38.7760 a3         1 CLA     -0.053300
     44 C4A        78.1862   59.3063   38.8893 ac         1 CLA      0.001800
     45 C4B        76.3698   60.4823   42.6761 cn         1 CLA     -0.020900
     46 C4C        72.8883   58.1183   41.8859 cr         1 CLA     -0.044400
     47 C4D        74.6460   56.8444   38.1942 c6         1 CLA     -0.046000
     48 C5         83.9771   53.4910   37.5475 a2         1 CLA     -0.070400
     49 C6         84.9145   54.6474   37.9915 a2         1 CLA      0.043900
     50 C7         84.6881   55.0657   39.4383 a2         1 CLA     -0.150000
     51 C8         85.6753   56.1790   39.9632 a1         1 CLA      0.064200
     52 C9         87.2004   55.8749   39.7876 a3         1 CLA     -0.259300
     53 C10        85.3976   56.6913   41.4151 a2         1 CLA     -0.071900
     54 C11        84.0031   57.1841   41.7016 a2         1 CLA      0.014500
     55 C12        83.8338   58.0975   42.9423 a2         1 CLA     -0.112100
     56 C13        84.3029   57.5958   44.3673 a1         1 CLA      0.089200
     57 C14        83.4399   56.4428   44.9375 a3         1 CLA     -0.239100
     58 C15        84.5480   58.8670   45.3586 a2         1 CLA     -0.102200
     59 C16        83.3167   59.6164   45.7425 a2         1 CLA      0.023900
     60 C17        83.7456   60.6217   46.8779 a2         1 CLA     -0.105700
     61 C18        82.7032   61.6749   47.3517 a1         1 CLA      0.206800
     62 C19        81.4416   60.9444   47.9019 a3         1 CLA     -0.280100
     63 C20        83.3049   62.6062   48.4035 a3         1 CLA     -0.280100
     64 NC         74.0422   58.7783   41.8620 nx         1 CLA     -0.309200
     65 MG         75.3979   58.9168   40.3187 mg         1 CLA      0.895000
     66 HMD3       70.5542   55.3993   38.1201 dc         1 CLA      0.064300
     67 HMD2       71.6869   54.0162   38.5726 dc         1 CLA      0.064300
     68 HMD1       71.0120   55.0963   39.7659 dc         1 CLA      0.064300
     69 HMC3       71.8190   59.8209   45.3990 dc         1 CLA      0.052100
     70 HMC2       73.1057   58.7858   46.1036 dc         1 CLA      0.052100
     71 HMC1       73.4893   60.4855   45.3725 dc         1 CLA      0.052100
     72 HMB3       79.4067   63.2567   42.5949 dc         1 CLA      0.063600
     73 HMB2       80.4446   61.9241   42.5079 dc         1 CLA      0.063600
     74 HMB1       80.0561   62.5961   40.9796 dc         1 CLA      0.063600
     75 HMA3       81.1040   59.0462   38.6470 dc         1 CLA      0.058300
     76 HMA2       80.3622   57.5978   39.1423 dc         1 CLA      0.058300
     77 HMA1       81.0668   57.7881   37.5100 dc         1 CLA      0.058300
     78 HED3       77.7000   52.4891   37.2643 dc         1 CLA      0.079300
     79 HED2       78.6756   54.0019   37.4814 dc         1 CLA      0.079300
     80 HED1       77.9200   53.1241   38.9357 dc         1 CLA      0.079300
     81 HBC3       70.6607   55.3283   44.6918 dc         1 CLA      0.016300
     82 HBC2       70.9939   55.2697   42.8866 dc         1 CLA      0.016300
     83 HBC1       72.2076   55.5678   44.0847 dc         1 CLA      0.016300
     84 HBB2       78.7290   62.5678   46.2211 da         1 CLA      0.183000
     85 HBB1       79.7363   61.9137   44.8483 da         1 CLA      0.183000
     86 HBA2       79.0372   58.4564   33.5884 dc         1 CLA      0.029400
     87 HBA1       80.1180   58.7168   34.9718 dc         1 CLA      0.029400
     88 HAC2       70.9659   57.6824   44.8808 dc         1 CLA      0.029300
     89 HAC1       70.2119   57.6436   43.2699 dc         1 CLA      0.029300
     90 HAA2       77.3048   57.4659   34.9683 dc         1 CLA      0.028700
     91 HAA1       77.9027   59.0704   35.4191 dc         1 CLA      0.028700
     92 H203       82.5739   63.2623   48.8667 dc         1 CLA      0.065600
     93 H202       83.8360   62.0714   49.1901 dc         1 CLA      0.065600
     94 H201       83.9425   63.2213   47.7585 dc         1 CLA      0.065600
     95 H193       81.6316   60.1176   48.6948 dc         1 CLA      0.065600
     96 H192       80.7540   61.6926   48.2103 dc         1 CLA      0.065600
     97 H191       80.9912   60.3242   47.1780 dc         1 CLA      0.065600
     98 H172       83.8491   59.9190   47.7034 dc         1 CLA      0.027600
     99 H171       84.6440   61.2836   46.7238 dc         1 CLA      0.027600
    100 H162       82.9270   60.2399   44.8700 dc         1 CLA      0.002900
    101 H161       82.5938   58.9565   46.2012 dc         1 CLA      0.002900
    102 H152       84.9492   58.4065   46.2490 dc         1 CLA      0.029100
    103 H151       85.3501   59.4302   45.0318 dc         1 CLA      0.029100
    104 H143       83.2109   55.7276   44.1441 dc         1 CLA      0.063600
    105 H142       83.8949   55.9568   45.8196 dc         1 CLA      0.063600
    106 H141       82.5461   56.9282   45.2825 dc         1 CLA      0.063600
    107 H122       84.4115   59.0073   42.7848 dc         1 CLA      0.032500
    108 H121       82.7978   58.2752   42.9631 dc         1 CLA      0.032500
    109 H112       83.6551   57.8738   40.9414 dc         1 CLA      0.006600
    110 H111       83.3938   56.3165   41.8175 dc         1 CLA      0.006600
    111 H102       85.6628   55.9291   42.1647 dc         1 CLA      0.024100
    112 H101       86.1222   57.5111   41.5066 dc         1 CLA      0.024100
    113 HHD        71.5075   56.7300   40.9689 da         1 CLA      0.174300
    114 HHC        75.2615   60.5052   44.4950 da         1 CLA      0.136800
    115 HHB        79.5765   60.7248   39.7204 da         1 CLA      0.138300
    116 HBD        75.5363   56.2397   35.2785 dc         1 CLA      0.107700
    117 HAB        76.6732   62.2709   45.0691 da         1 CLA      0.155200
    118 H93        87.3767   55.8758   38.7474 dc         1 CLA      0.069500
    119 H92        87.9047   56.5282   40.1792 dc         1 CLA      0.069500
    120 H91        87.3882   54.8794   40.1546 dc         1 CLA      0.069500
    121 H8         85.4567   57.0219   39.3568 dc         1 CLA      0.029300
    122 H72        83.7061   55.5031   39.6010 dc         1 CLA      0.044400
    123 H71        84.8087   54.1582   40.0657 dc         1 CLA      0.044400
    124 H62        85.9277   54.3533   37.7099 dc         1 CLA      0.015600
    125 H61        84.7499   55.5599   37.3464 dc         1 CLA      0.015600
    126 H52        84.1878   52.5929   38.1137 dc         1 CLA      0.033200
    127 H51        84.1678   53.2466   36.4989 dc         1 CLA      0.033200
    128 H43        80.6862   53.2259   38.5968 dc         1 CLA      0.037000
    129 H42        81.9621   52.0812   38.3864 dc         1 CLA      0.037000
    130 H41        82.1274   53.1716   39.7839 dc         1 CLA      0.037000
    131 H3A        79.4350   59.4803   36.9875 dc         1 CLA      0.041100
    132 H2A        78.7257   56.7640   37.1613 dc         1 CLA      0.083100
    133 H2         82.1929   55.9188   37.5858 da         1 CLA      0.180900
    134 H18        82.4268   62.3097   46.5282 dc         1 CLA     -0.003900
    135 H13        85.2623   57.1166   44.3371 dc         1 CLA      0.019700
    136 H12        80.2043   54.5371   35.9480 dc         1 CLA      0.120400
    137 H11        81.7468   54.3964   35.0502 dc         1 CLA      0.120400
    138 C1         67.7382   61.3487   50.7938 Z1         2 LUT      0.509236
    139 C2         66.3235   61.3537   51.2505 Z2         2 LUT     -0.434695
    140 C3         65.6404   62.7353   51.4808 Z3         2 LUT      0.437453
    141 O3         65.8911   63.1894   52.8544 S1         2 LUT     -0.547129
    142 C4         66.1891   63.7057   50.5371 Z4         2 LUT     -0.468603
    143 C5         66.9660   63.2216   49.3002 Z5         2 LUT      0.279246
    144 C6         67.7883   62.1380   49.4457 Z6         2 LUT     -0.305473
    145 C7         68.2994   61.4808   48.2076 Z7         2 LUT      0.069402
    146 C8         69.0929   61.9935   47.2453 Z8         2 LUT     -0.191631
    147 C9         69.5671   61.3930   45.9601 Z9         2 LUT      0.196698
    148 C10        70.5237   62.1446   45.3130 Y1         2 LUT     -0.208611
    149 C11        71.1855   61.8798   44.0519 Y2         2 LUT      0.030784
    150 C12        72.2678   62.6389   43.7770 Y3         2 LUT     -0.220316
    151 C13        73.2299   62.6231   42.6472 Y4         2 LUT      0.215937
    152 C14        74.2842   63.4384   42.7166 Y5         2 LUT     -0.185793
    153 C15        75.3810   63.5325   41.8741 Y6         2 LUT     -0.057835
    154 C16        68.2652   59.9187   50.6308 Y7         2 LUT     -0.405615
    155 C17        68.5351   62.0555   51.8734 Y7         2 LUT     -0.405615
    156 C18        66.4166   63.7045   47.9810 Y9         2 LUT     -0.369639
    157 C19        68.9967   60.0079   45.5302 W1         2 LUT     -0.333362
    158 C20        72.7095   62.0182   41.3580 W2         2 LUT     -0.323439
    159 C21        86.7541   65.1770   36.2005 Z1         2 LUT      0.406104
    160 C22        87.7403   64.8001   35.0576 Z2         2 LUT     -0.404965
    161 C23        87.8942   65.8395   34.0209 Z3         2 LUT      0.391255
    162 O23        88.7127   65.2051   32.9983 S1         2 LUT     -0.528210
    163 C24        86.5126   66.3765   33.5944 W6         2 LUT     -0.258361
    164 C25        85.3477   66.2053   34.2921 Z5         2 LUT      0.133546
    165 C26        85.3431   65.4359   35.6315 W8         2 LUT     -0.147008
    166 C27        84.4045   66.1133   36.5898 Z7         2 LUT      0.023843
    167 C28        83.3584   65.5882   37.1632 Z8         2 LUT     -0.216987
    168 C29        82.6390   66.1988   38.2594 Z9         2 LUT      0.206524
    169 C30        81.7100   65.3666   38.8579 Y1         2 LUT     -0.215556
    170 C31        80.8416   65.6566   39.9455 Y2         2 LUT      0.025142
    171 C32        79.6302   65.0843   40.0859 Y3         2 LUT     -0.212209
    172 C33        78.5769   65.2278   41.0393 Y4         2 LUT      0.240937
    173 C34        77.4598   64.4354   40.9733 Y5         2 LUT     -0.218862
    174 C35        76.4166   64.4163   41.9363 Y6         2 LUT     -0.023547
    175 C36        87.4345   66.4502   36.9625 Y7         2 LUT     -0.393485
    176 C37        86.8469   64.0363   37.1616 Y7         2 LUT     -0.393485
    177 C38        83.9729   66.7150   33.8330 Y9         2 LUT     -0.387526
    178 C39        83.0905   67.5433   38.7922 W1         2 LUT     -0.322618
    179 C40        78.8636   66.3546   42.0249 W2         2 LUT     -0.358472
    180 H403       78.8484   67.3038   41.4983 R7         2 LUT      0.097720
    181 H402       78.2010   66.3775   42.8896 R7         2 LUT      0.097720
    182 H401       79.8774   66.2206   42.4828 R7         2 LUT      0.097720
    183 H393       82.6650   67.7448   39.7673 R4         2 LUT      0.082505
    184 H392       84.1812   67.5889   38.9498 R4         2 LUT      0.082505
    185 H391       82.8009   68.3669   38.1104 R4         2 LUT      0.082505
    186 H383       83.2496   67.2120   34.5291 R1         2 LUT      0.104030
    187 H382       84.1292   67.4117   33.0185 R1         2 LUT      0.104030
    188 H381       83.4758   65.8275   33.3969 R1         2 LUT      0.104030
    189 H373       86.2089   64.1710   38.0280 T4         2 LUT      0.089537
    190 H372       86.3461   63.0650   36.7476 T4         2 LUT      0.089537
    191 H371       87.8342   63.7258   37.4895 T4         2 LUT      0.089537
    192 H363       88.4634   66.4833   36.8531 T4         2 LUT      0.089537
    193 H362       87.1691   67.4660   36.7352 T4         2 LUT      0.089537
    194 H361       87.2740   66.4155   38.0786 T4         2 LUT      0.089537
    195 H222       88.7184   64.7184   35.5889 U2         2 LUT      0.127376
    196 H221       87.5098   63.7987   34.6723 U2         2 LUT      0.127376
    197 H203       72.4750   60.9805   41.3736 R7         2 LUT      0.087068
    198 H202       71.8643   62.5488   41.0402 R7         2 LUT      0.087068
    199 H201       73.4464   62.2188   40.6319 R7         2 LUT      0.087068
    200 H193       69.6419   59.1991   45.9164 R4         2 LUT      0.089716
    201 H192       67.9437   59.7073   45.7829 R4         2 LUT      0.089716
    202 H191       68.9752   59.8597   44.4695 R4         2 LUT      0.089716
    203 H183       65.3651   64.0871   48.0717 R1         2 LUT      0.094572
    204 H182       66.9573   64.5727   47.6519 R1         2 LUT      0.094572
    205 H181       66.4450   62.9471   47.1331 R1         2 LUT      0.094572
    206 H173       69.5732   61.7009   51.8714 T4         2 LUT      0.093752
    207 H172       68.5230   63.1389   51.9226 T4         2 LUT      0.093752
    208 H171       68.1168   61.7612   52.8052 T4         2 LUT      0.093752
    209 H163       67.8627   59.3045   49.8564 T4         2 LUT      0.093752
    210 H162       69.4370   60.0069   50.5316 T4         2 LUT      0.093752
    211 H161       68.0868   59.3209   51.5307 T4         2 LUT      0.093752
    212 HO3        65.4858   62.5813   53.5097 Q1         2 LUT      0.300121
    213 H8         69.3866   63.0251   47.3013 U7         2 LUT      0.080784
    214 H7         67.9490   60.4530   48.0216 U6         2 LUT      0.042190
    215 H42        65.3248   64.2514   50.1719 U5         2 LUT      0.145166
    216 H41        66.9065   64.3600   51.0594 U5         2 LUT      0.145166
    217 H35        76.2672   65.1883   42.7134 T3         2 LUT      0.077919
    218 H34        77.4974   63.6880   40.1599 T2         2 LUT      0.073626
    219 H32        79.4022   64.2891   39.3380 T1         2 LUT      0.092510
    220 H31        81.1197   66.4568   40.5942 U9         2 LUT      0.070048
    221 H30        81.5422   64.4245   38.3087 U8         2 LUT      0.085442
    222 H3         64.5377   62.7747   51.2901 U3         2 LUT     -0.031596
    223 H28        83.3197   64.5244   37.0591 U7         2 LUT      0.084728
    224 H27        84.7311   67.0605   37.0166 U6         2 LUT      0.087291
    225 H26        85.0133   64.4101   35.3232 Q6         2 LUT      0.075325
    226 H24        86.4663   66.8261   32.5780 Q5         2 LUT      0.094482
    227 H23        88.3878   66.7356   34.4241 U3         2 LUT     -0.024869
    228 H22        65.6616   60.9850   50.5371 U2         2 LUT      0.127376
    229 H21        66.2212   60.7599   52.1375 U2         2 LUT      0.127376
    230 H15        75.4899   62.8483   41.0892 T3         2 LUT      0.093200
    231 H14        74.2793   64.2103   43.5197 T2         2 LUT      0.068865
    232 H12        72.6340   63.3515   44.5815 T1         2 LUT      0.095507
    233 H11        70.8248   61.0818   43.4031 U9         2 LUT      0.068930
    234 H10        70.8758   63.1022   45.7958 U8         2 LUT      0.083911
    235 H1         88.1941   64.8693   32.2956 Q1         2 LUT      0.297311
@<TRIPOS>BOND
    1     6     1 1
    2     7     2 1
    3     8     3 1
    4     9     4 1
    5    11     4 1
    6    12     6 1
    7    13     9 1
    8    16     9 1
    9    25     5 1
   10    25    16 1
   11    26    10 1
   12    26    17 1
   13    27    18 1
   14    28    14 1
   15    28    19 1
   16    29    12 1
   17    30    13 1
   18    31    24 1
   19    32     1 1
   20    32    25 1
   21    33    21 1
   22    33    26 1
   23    34    22 1
   24    34    27 1
   25    35    23 1
   26    35    28 1
   27    36    12 1
   28    36    24 1
   29    37    13 1
   30    37    15 1
   31    38    31 1
   32    39    20 1
   33    39    32 1
   34    40     2 1
   35    40    33 1
   36    41     3 1
   37    41    34 1
   38    42     4 1
   39    42    35 1
   40    43    38 1
   41    44     5 1
   42    44    17 1
   43    44    39 1
   44    45    10 1
   45    45    18 1
   46    45    40 1
   47    46    19 1
   48    46    41 1
   49    47    14 1
   50    47    16 1
   51    47    42 1
   52    48    38 1
   53    49    48 1
   54    50    49 1
   55    51    50 1
   56    52    51 1
   57    53    51 1
   58    54    53 1
   59    55    54 1
   60    56    55 1
   61    57    56 1
   62    58    56 1
   63    59    58 1
   64    60    59 1
   65    61    60 1
   66    62    61 1
   67    63    61 1
   68    64    27 1
   69    64    46 1
   70    65     5 1
   71    65    10 1
   72    65    64 1
   73    65    14 1
   74    66    23 1
   75    67    23 1
   76    68    23 1
   77    69    22 1
   78    70    22 1
   79    71    22 1
   80    72    21 1
   81    73    21 1
   82    74    21 1
   83    75    20 1
   84    76    20 1
   85    77    20 1
   86    78    15 1
   87    79    15 1
   88    80    15 1
   89    81     8 1
   90    82     8 1
   91    83     8 1
   92    84     7 1
   93    85     7 1
   94    86     6 1
   95    87     6 1
   96    88     3 1
   97    89     3 1
   98    90     1 1
   99    91     1 1
  100    92    63 1
  101    93    63 1
  102    94    63 1
  103    95    62 1
  104    96    62 1
  105    97    62 1
  106    98    60 1
  107    99    60 1
  108   100    59 1
  109   101    59 1
  110   102    58 1
  111   103    58 1
  112   104    57 1
  113   105    57 1
  114   106    57 1
  115   107    55 1
  116   108    55 1
  117   109    54 1
  118   110    54 1
  119   111    53 1
  120   112    53 1
  121   113    19 1
  122   114    18 1
  123   115    17 1
  124   116     9 1
  125   117     2 1
  126   118    52 1
  127   119    52 1
  128   120    52 1
  129   121    51 1
  130   122    50 1
  131   123    50 1
  132   124    49 1
  133   125    49 1
  134   126    48 1
  135   127    48 1
  136   128    43 1
  137   129    43 1
  138   130    43 1
  139   131    39 1
  140   132    32 1
  141   133    31 1
  142   134    61 1
  143   135    56 1
  144   136    24 1
  145   137    24 1
  146   139   138 1
  147   140   139 1
  148   141   140 1
  149   142   140 1
  150   143   142 1
  151   144   138 1
  152   144   143 1
  153   145   144 1
  154   146   145 1
  155   147   146 1
  156   148   147 1
  157   149   148 1
  158   150   149 1
  159   151   150 1
  160   152   151 1
  161   153   152 1
  162   154   138 1
  163   155   138 1
  164   156   143 1
  165   157   147 1
  166   158   151 1
  167   160   159 1
  168   161   160 1
  169   162   161 1
  170   163   161 1
  171   164   163 1
  172   165   159 1
  173   165   164 1
  174   166   165 1
  175   167   166 1
  176   168   167 1
  177   169   168 1
  178   170   169 1
  179   171   170 1
  180   172   171 1
  181   173   172 1
  182   174   153 1
  183   174   173 1
  184   175   159 1
  185   176   159 1
  186   177   164 1
  187   178   168 1
  188   179   172 1
  189   180   179 1
  190   181   179 1
  191   182   179 1
  192   183   178 1
  193   184   178 1
  194   185   178 1
  195   186   177 1
  196   187   177 1
  197   188   177 1
  198   189   176 1
  199   190   176 1
  200   191   176 1
  201   192   175 1
  202   193   175 1
  203   194   175 1
  204   195   160 1
  205   196   160 1
  206   197   158 1
  207   198   158 1
  208   199   158 1
  209   200   157 1
  210   201   157 1
  211   202   157 1
  212   203   156 1
  213   204   156 1
  214   205   156 1
  215   206   155 1
  216   207   155 1
  217   208   155 1
  218   209   154 1
  219   210   154 1
  220   211   154 1
  221   212   141 1
  222   213   146 1
  223   214   145 1
  224   215   142 1
  225   216   142 1
  226   217   174 1
  227   218   173 1
  228   219   171 1
  229   220   170 1
  230   221   169 1
  231   222   140 1
  232   223   167 1
  233   224   166 1
  234   225   165 1
  235   226   163 1
  236   227   161 1
  237   228   139 1
  238   229   139 1
  239   230   153 1
  240   231   152 1
  241   232   150 1
  242   233   149 1
  243   234   148 1
  244   235   162 1
  245   65    153 1
  246   65    174 1
@<TRIPOS>SUBSTRUCTURE
      1 CLA               1 ****               0 ****  **** 
      2 LUT             138 ****               0 ****  **** 
