@<TRIPOS>MOLECULE
Cpptraj generated mol2 file.
  235   246     2     0     0
SMALL
USER_CHARGES


@<TRIPOS>ATOM
      1 CAA        80.0726   58.0811   35.5083 a2         1 CLA     -0.055900
      2 CAB        79.8205   62.4813   43.8282 c8         1 CLA     -0.148500
      3 CAC        73.1415   57.8508   44.0656 a2         1 CLA     -0.012600
      4 CAD        75.4316   55.4924   36.5516 ck         1 CLA      0.398800
      5 NA         78.8597   58.2967   38.7927 ns         1 CLA     -0.225500
      6 CBA        81.3457   57.6634   34.7208 a2         1 CLA     -0.135000
      7 CBB        80.8986   62.7873   44.5292 c0         1 CLA     -0.395200
      8 CBC        73.2762   56.3337   44.1869 a3         1 CLA     -0.037700
      9 CBD        77.0528   55.9207   36.2277 a1         1 CLA     -0.053900
     10 NB         78.8395   59.9915   41.2442 nm         1 CLA     -0.295700
     11 OBD        74.6725   54.8150   35.8506 o2         1 CLA     -0.494600
     12 CGA        81.4908   56.1940   34.1717 c4         1 CLA      0.827000
     13 CGD        77.8501   54.6873   36.0899 c4         1 CLA      0.655300
     14 ND         76.1263   57.4324   39.4668 nm         1 CLA     -0.291600
     15 CED        78.0841   52.4611   36.9041 a3         1 CLA      0.005400
     16 CHA        77.4112   56.8242   37.4224 cs         1 CLA     -0.123800
     17 CHB        80.7503   59.5436   39.7555 aa         1 CLA     -0.291900
     18 CHC        77.5805   60.3650   43.2821 aa         1 CLA     -0.090400
     19 CHD        74.3168   57.5103   41.1006 aa         1 CLA     -0.052000
     20 CMA        82.1318   57.0617   38.6426 a3         1 CLA     -0.230700
     21 CMB        82.1616   61.7417   41.4451 a3         1 CLA     -0.180800
     22 CMC        75.2945   60.0372   45.4386 a3         1 CLA     -0.134000
     23 CMD        72.7805   55.9859   38.8177 a3         1 CLA     -0.141100
     24 C1         82.4022   54.0923   34.8196 a2         1 CLA      0.023000
     25 C1A        78.6778   57.4594   37.6736 ac         1 CLA     -0.015100
     26 C1B        80.1604   60.1952   40.8657 cr         1 CLA      0.054700
     27 C1C        76.3805   59.6405   43.1001 cn         1 CLA     -0.005600
     28 C1D        74.8112   57.1213   39.8244 ap         1 CLA     -0.047300
     29 O1A        81.1516   55.7411   33.0862 o2         1 CLA     -0.610800
     30 O1D        78.6915   54.4787   35.2218 o2         1 CLA     -0.558200
     31 C2         83.1694   53.6025   35.9337 c8         1 CLA     -0.325100
     32 C2A        80.0658   57.3553   36.8905 a1         1 CLA      0.098600
     33 C2B        80.7923   61.1905   41.7202 cb         1 CLA      0.088500
     34 C2C        75.2541   59.5021   44.0474 cb         1 CLA      0.053700
     35 C2D        74.1827   56.4181   38.7845 cb         1 CLA      0.058900
     36 O2A        82.0715   55.4699   35.1067 o1         1 CLA     -0.437200
     37 O2D        77.4497   53.7982   36.9530 o1         1 CLA     -0.357600
     38 C3         84.5156   53.4657   36.0367 c5         1 CLA      0.031200
     39 C3A        81.1081   57.9982   37.8973 a1         1 CLA      0.166800
     40 C3B        79.8084   61.5261   42.6584 cb         1 CLA      0.035000
     41 C3C        74.3167   58.5703   43.4370 cb         1 CLA     -0.089900
     42 C3D        75.1835   56.1732   37.8284 cb         1 CLA     -0.035900
     43 C4         85.0957   52.0571   35.8901 a3         1 CLA     -0.053300
     44 C4A        80.1815   58.6889   38.8344 ac         1 CLA      0.001800
     45 C4B        78.6485   60.6105   42.4420 cn         1 CLA     -0.020900
     46 C4C        74.9109   58.3023   42.0811 cr         1 CLA     -0.044400
     47 C4D        76.3085   56.8532   38.2696 c6         1 CLA     -0.046000
     48 C5         85.3949   54.6244   36.4752 a2         1 CLA     -0.070400
     49 C6         85.4126   54.9495   37.9777 a2         1 CLA      0.043900
     50 C7         86.8420   55.4478   38.2908 a2         1 CLA     -0.150000
     51 C8         87.0292   56.1930   39.6039 a1         1 CLA      0.064200
     52 C9         86.3106   57.5210   39.8654 a3         1 CLA     -0.259300
     53 C10        88.5133   56.2885   40.0386 a2         1 CLA     -0.071900
     54 C11        88.9093   57.0293   41.3700 a2         1 CLA      0.014500
     55 C12        88.4884   56.1984   42.6131 a2         1 CLA     -0.112100
     56 C13        88.6192   56.9076   43.9073 a1         1 CLA      0.089200
     57 C14        88.6322   55.8294   45.1236 a3         1 CLA     -0.239100
     58 C15        87.4938   58.0093   44.0522 a2         1 CLA     -0.102200
     59 C16        87.5026   58.9059   45.2895 a2         1 CLA      0.023900
     60 C17        86.3383   59.8631   45.3743 a2         1 CLA     -0.105700
     61 C18        84.9126   59.2872   45.1841 a1         1 CLA      0.206800
     62 C19        84.4810   58.5205   46.4203 a3         1 CLA     -0.280100
     63 C20        83.9227   60.4908   44.9598 a3         1 CLA     -0.280100
     64 NC         76.1417   58.8608   41.9428 nx         1 CLA     -0.309200
     65 MG         77.4279   58.7772   40.3197 mg         1 CLA      0.895000
     66 HMD3       72.5715   55.1860   38.1136 dc         1 CLA      0.064300
     67 HMD2       72.4416   55.6302   39.7556 dc         1 CLA      0.064300
     68 HMD1       72.2296   56.9528   38.5201 dc         1 CLA      0.064300
     69 HMC3       76.3490   60.1051   45.7754 dc         1 CLA      0.052100
     70 HMC2       74.7509   60.9737   45.5156 dc         1 CLA      0.052100
     71 HMC1       74.8794   59.2629   46.1022 dc         1 CLA      0.052100
     72 HMB3       82.3477   62.7068   41.9373 dc         1 CLA      0.063600
     73 HMB2       82.8025   60.8993   41.6747 dc         1 CLA      0.063600
     74 HMB1       82.2495   61.9096   40.3080 dc         1 CLA      0.063600
     75 HMA3       82.8616   57.7221   39.1129 dc         1 CLA      0.058300
     76 HMA2       81.6146   56.5069   39.4168 dc         1 CLA      0.058300
     77 HMA1       82.4046   56.3976   37.8251 dc         1 CLA      0.058300
     78 HED3       79.1396   52.3392   36.7550 dc         1 CLA      0.079300
     79 HED2       77.7201   51.8269   37.7293 dc         1 CLA      0.079300
     80 HED1       77.5389   51.9965   36.0714 dc         1 CLA      0.079300
     81 HBC3       73.1944   55.8947   43.2639 dc         1 CLA      0.016300
     82 HBC2       74.2515   56.0042   44.6122 dc         1 CLA      0.016300
     83 HBC1       72.4034   55.9981   44.7185 dc         1 CLA      0.016300
     84 HBB2       80.9342   63.5079   45.3916 da         1 CLA      0.183000
     85 HBB1       81.7689   62.1657   44.4106 da         1 CLA      0.183000
     86 HBA2       81.1799   58.3163   33.8746 dc         1 CLA      0.029400
     87 HBA1       82.2151   57.9812   35.2836 dc         1 CLA      0.029400
     88 HAC2       73.0796   58.0844   45.0673 dc         1 CLA      0.029300
     89 HAC1       72.2053   58.1843   43.6745 dc         1 CLA      0.029300
     90 HAA2       79.1375   57.7558   35.0266 dc         1 CLA      0.028700
     91 HAA1       79.9714   59.1227   35.6028 dc         1 CLA      0.028700
     92 H203       84.0353   61.1294   45.9002 dc         1 CLA      0.065600
     93 H202       84.3382   61.0966   44.1133 dc         1 CLA      0.065600
     94 H201       82.9301   60.1048   44.7307 dc         1 CLA      0.065600
     95 H193       84.6043   59.2290   47.2157 dc         1 CLA      0.065600
     96 H192       83.4680   58.1317   46.3829 dc         1 CLA      0.065600
     97 H191       85.1662   57.7400   46.6665 dc         1 CLA      0.065600
     98 H172       86.3890   60.3153   46.4185 dc         1 CLA      0.027600
     99 H171       86.5096   60.6405   44.5654 dc         1 CLA      0.027600
    100 H162       87.3626   58.1985   46.0644 dc         1 CLA      0.002900
    101 H161       88.4614   59.3703   45.3807 dc         1 CLA      0.002900
    102 H152       87.4715   58.5718   43.1491 dc         1 CLA      0.029100
    103 H151       86.5622   57.4572   43.9673 dc         1 CLA      0.029100
    104 H143       89.1322   56.2868   45.9541 dc         1 CLA      0.063600
    105 H142       87.5866   55.4775   45.4223 dc         1 CLA      0.063600
    106 H141       89.1945   54.9171   44.8189 dc         1 CLA      0.063600
    107 H122       87.4572   55.9072   42.4036 dc         1 CLA      0.032500
    108 H121       89.1170   55.3200   42.5964 dc         1 CLA      0.032500
    109 H112       89.9712   57.2407   41.3070 dc         1 CLA      0.006600
    110 H111       88.3396   57.9529   41.3850 dc         1 CLA      0.006600
    111 H102       88.9881   55.2723   40.0359 dc         1 CLA      0.024100
    112 H101       89.0234   56.9132   39.3099 dc         1 CLA      0.024100
    113 HHD        73.2856   57.2832   41.2848 da         1 CLA      0.174300
    114 HHC        77.6735   60.7917   44.2633 da         1 CLA      0.136800
    115 HHB        81.8217   59.7254   39.5808 da         1 CLA      0.138300
    116 HBD        77.1250   56.4532   35.3488 dc         1 CLA      0.107700
    117 HAB        78.9177   63.0218   44.1636 da         1 CLA      0.155200
    118 H93        86.3422   57.7622   40.9445 dc         1 CLA      0.069500
    119 H92        86.7575   58.3865   39.3625 dc         1 CLA      0.069500
    120 H91        85.2315   57.4472   39.7002 dc         1 CLA      0.069500
    121 H8         86.5286   55.5221   40.3484 dc         1 CLA      0.029300
    122 H72        87.5240   54.5633   38.4539 dc         1 CLA      0.044400
    123 H71        87.2560   56.0034   37.3890 dc         1 CLA      0.044400
    124 H62        84.6595   55.7246   38.2672 dc         1 CLA      0.015600
    125 H61        85.2502   53.9586   38.4749 dc         1 CLA      0.015600
    126 H52        86.3649   54.2087   36.3347 dc         1 CLA      0.033200
    127 H51        85.2144   55.4714   35.8343 dc         1 CLA      0.033200
    128 H43        84.2959   51.3300   36.0423 dc         1 CLA      0.037000
    129 H42        85.4108   52.0626   34.8353 dc         1 CLA      0.037000
    130 H41        85.9643   51.9167   36.5277 dc         1 CLA      0.037000
    131 H3A        81.6405   58.7470   37.2885 dc         1 CLA      0.041100
    132 H2A        80.2248   56.2799   36.7495 dc         1 CLA      0.083100
    133 H2         82.6409   53.3417   36.9032 da         1 CLA      0.180900
    134 H18        84.8665   58.7004   44.2336 dc         1 CLA     -0.003900
    135 H13        89.5924   57.3882   43.9982 dc         1 CLA      0.019700
    136 H12        81.4537   53.4695   34.7634 dc         1 CLA      0.120400
    137 H11        82.9010   53.9910   33.8862 dc         1 CLA      0.120400
    138 C1         69.5236   61.6458   50.6555 Z1         2 LUT      0.509236
    139 C2         68.1683   61.5789   51.4020 Z2         2 LUT     -0.434695
    140 C3         67.2753   62.8602   51.3616 Z3         2 LUT      0.437453
    141 O3         66.8508   63.1381   52.7590 S1         2 LUT     -0.547129
    142 C4         67.8664   64.1736   50.6904 Z4         2 LUT     -0.468603
    143 C5         68.7018   63.7878   49.5209 Z5         2 LUT      0.279246
    144 C6         69.4273   62.6173   49.4855 Z6         2 LUT     -0.305473
    145 C7         69.9481   62.0331   48.2325 Z7         2 LUT      0.069402
    146 C8         70.8705   62.7024   47.4940 Z8         2 LUT     -0.191631
    147 C9         71.4554   62.2548   46.2345 Z9         2 LUT      0.196698
    148 C10        72.4339   62.9316   45.5830 Y1         2 LUT     -0.208611
    149 C11        73.1789   62.6760   44.3297 Y2         2 LUT      0.030784
    150 C12        74.3289   63.3869   44.0414 Y3         2 LUT     -0.220316
    151 C13        75.1752   63.1963   42.8650 Y4         2 LUT      0.215937
    152 C14        76.3462   64.0301   42.7275 Y5         2 LUT     -0.185793
    153 C15        77.5233   64.0276   41.8495 Y6         2 LUT     -0.057835
    154 C16        70.0862   60.2473   50.3854 Y7         2 LUT     -0.405615
    155 C17        70.4855   62.4178   51.6237 Y7         2 LUT     -0.405615
    156 C18        68.2366   64.4781   48.2312 Y9         2 LUT     -0.369639
    157 C19        71.0039   60.9861   45.5499 W1         2 LUT     -0.333362
    158 C20        74.7641   62.3074   41.7607 W2         2 LUT     -0.323439
    159 C21        89.1552   64.5930   35.8879 Z1         2 LUT      0.406104
    160 C22        89.5055   63.7444   34.7364 Z2         2 LUT     -0.404965
    161 C23        89.7289   64.4042   33.3819 Z3         2 LUT      0.391255
    162 O23        89.7419   63.2992   32.4501 S1         2 LUT     -0.528210
    163 C24        88.6451   65.4915   33.1481 W6         2 LUT     -0.258361
    164 C25        87.7396   65.8777   34.1016 Z5         2 LUT      0.133546
    165 C26        87.7495   65.2776   35.5435 W8         2 LUT     -0.147008
    166 C27        87.1082   66.1109   36.6655 Z7         2 LUT      0.023843
    167 C28        85.8277   65.8377   37.1592 Z8         2 LUT     -0.216987
    168 C29        85.1346   66.3551   38.3210 Z9         2 LUT      0.206524
    169 C30        83.9350   65.7233   38.7926 Y1         2 LUT     -0.215556
    170 C31        83.0549   66.0145   39.9393 Y2         2 LUT      0.025142
    171 C32        81.9323   65.2826   40.1546 Y3         2 LUT     -0.212209
    172 C33        80.9897   65.4600   41.1741 Y4         2 LUT      0.240937
    173 C34        79.8266   64.6398   41.1079 Y5         2 LUT     -0.218862
    174 C35        78.7035   64.7702   41.9560 Y6         2 LUT     -0.023547
    175 C36        90.3463   65.6103   36.0833 Y7         2 LUT     -0.393485
    176 C37        89.1030   63.6428   37.0942 Y7         2 LUT     -0.393485
    177 C38        86.6115   66.7993   33.7518 Y9         2 LUT     -0.387526
    178 C39        85.7136   67.5631   39.0364 W1         2 LUT     -0.322618
    179 C40        81.3522   66.5317   42.2296 W2         2 LUT     -0.358472
    180 H403       80.4895   66.5683   42.9432 R7         2 LUT      0.097720
    181 H402       82.3338   66.4155   42.7216 R7         2 LUT      0.097720
    182 H401       81.2906   67.4647   41.7273 R7         2 LUT      0.097720
    183 H393       85.1153   67.8616   39.9378 R4         2 LUT      0.082505
    184 H392       86.7008   67.4385   39.3434 R4         2 LUT      0.082505
    185 H391       85.7431   68.4253   38.4096 R4         2 LUT      0.082505
    186 H383       86.6631   67.7643   34.3699 R1         2 LUT      0.104030
    187 H382       86.6152   67.1594   32.7022 R1         2 LUT      0.104030
    188 H381       85.6408   66.4343   34.1183 R1         2 LUT      0.104030
    189 H373       89.9253   63.0155   37.3260 T4         2 LUT      0.089537
    190 H372       88.8592   64.1768   37.9384 T4         2 LUT      0.089537
    191 H371       88.3065   62.9490   36.9347 T4         2 LUT      0.089537
    192 H363       90.1716   66.4000   36.8350 T4         2 LUT      0.089537
    193 H362       91.2430   65.0452   36.3705 T4         2 LUT      0.089537
    194 H361       90.5246   66.1656   35.1231 T4         2 LUT      0.089537
    195 H222       90.4246   63.1344   34.9834 U2         2 LUT      0.127376
    196 H221       88.8423   62.8424   34.6239 U2         2 LUT      0.127376
    197 H203       74.0118   62.6642   41.1261 R7         2 LUT      0.087068
    198 H202       75.5802   62.0767   41.0558 R7         2 LUT      0.087068
    199 H201       74.4663   61.2732   42.0368 R7         2 LUT      0.087068
    200 H193       71.7716   60.2220   45.4359 R4         2 LUT      0.089716
    201 H192       70.1911   60.5330   46.0568 R4         2 LUT      0.089716
    202 H191       70.6554   61.2148   44.5982 R4         2 LUT      0.089716
    203 H183       68.6596   65.5127   48.1057 R1         2 LUT      0.094572
    204 H182       68.5758   63.8957   47.3161 R1         2 LUT      0.094572
    205 H181       67.1500   64.4999   48.1314 R1         2 LUT      0.094572
    206 H173       70.1922   63.4721   51.9179 T4         2 LUT      0.093752
    207 H172       70.5546   61.8305   52.5580 T4         2 LUT      0.093752
    208 H171       71.4757   62.3577   51.1500 T4         2 LUT      0.093752
    209 H163       71.0718   60.2910   50.0274 T4         2 LUT      0.093752
    210 H162       70.1602   59.5915   51.3173 T4         2 LUT      0.093752
    211 H161       69.5409   59.6291   49.7327 T4         2 LUT      0.093752
    212 HO3        67.5408   63.2532   53.4300 Q1         2 LUT      0.300121
    213 H8         71.2729   63.6726   47.6387 U7         2 LUT      0.080784
    214 H7         69.6210   61.0762   47.9936 U6         2 LUT      0.042190
    215 H42        66.9605   64.6778   50.3983 U5         2 LUT      0.145166
    216 H41        68.4431   64.7411   51.3961 U5         2 LUT      0.145166
    217 H35        78.6831   65.2666   42.8789 T3         2 LUT      0.077919
    218 H34        79.7054   63.8893   40.3293 T2         2 LUT      0.073626
    219 H32        81.7187   64.4567   39.4754 T1         2 LUT      0.092510
    220 H31        83.4106   66.8502   40.5686 U9         2 LUT      0.070048
    221 H30        83.6885   64.7994   38.2469 U8         2 LUT      0.085442
    222 H3         66.3690   62.5415   50.9029 U3         2 LUT     -0.031596
    223 H28        85.1881   65.2214   36.6088 U7         2 LUT      0.084728
    224 H27        87.7787   66.7408   37.2271 U6         2 LUT      0.087291
    225 H26        87.0357   64.4109   35.4311 Q6         2 LUT      0.075325
    226 H24        88.4911   65.8933   32.1673 Q5         2 LUT      0.094482
    227 H23        90.7202   64.8843   33.3743 U3         2 LUT     -0.024869
    228 H22        67.5656   60.7468   51.0051 U2         2 LUT      0.127376
    229 H21        68.5818   61.2916   52.3607 U2         2 LUT      0.127376
    230 H15        77.5004   63.3156   41.0207 T3         2 LUT      0.093200
    231 H14        76.4801   64.6956   43.5914 T2         2 LUT      0.068865
    232 H12        74.7292   64.1973   44.7760 T1         2 LUT      0.095507
    233 H11        72.8731   61.8229   43.7347 U9         2 LUT      0.068930
    234 H10        72.6880   63.8738   46.0768 U8         2 LUT      0.083911
    235 H1         90.0928   63.6642   31.5502 Q1         2 LUT      0.297311
@<TRIPOS>BOND
    1     6     1 1
    2     7     2 1
    3     8     3 1
    4     9     4 1
    5    11     4 1
    6    12     6 1
    7    13     9 1
    8    16     9 1
    9    25     5 1
   10    25    16 1
   11    26    10 1
   12    26    17 1
   13    27    18 1
   14    28    14 1
   15    28    19 1
   16    29    12 1
   17    30    13 1
   18    31    24 1
   19    32     1 1
   20    32    25 1
   21    33    21 1
   22    33    26 1
   23    34    22 1
   24    34    27 1
   25    35    23 1
   26    35    28 1
   27    36    12 1
   28    36    24 1
   29    37    13 1
   30    37    15 1
   31    38    31 1
   32    39    20 1
   33    39    32 1
   34    40     2 1
   35    40    33 1
   36    41     3 1
   37    41    34 1
   38    42     4 1
   39    42    35 1
   40    43    38 1
   41    44     5 1
   42    44    17 1
   43    44    39 1
   44    45    10 1
   45    45    18 1
   46    45    40 1
   47    46    19 1
   48    46    41 1
   49    47    14 1
   50    47    16 1
   51    47    42 1
   52    48    38 1
   53    49    48 1
   54    50    49 1
   55    51    50 1
   56    52    51 1
   57    53    51 1
   58    54    53 1
   59    55    54 1
   60    56    55 1
   61    57    56 1
   62    58    56 1
   63    59    58 1
   64    60    59 1
   65    61    60 1
   66    62    61 1
   67    63    61 1
   68    64    27 1
   69    64    46 1
   70    65     5 1
   71    65    10 1
   72    65    64 1
   73    65    14 1
   74    66    23 1
   75    67    23 1
   76    68    23 1
   77    69    22 1
   78    70    22 1
   79    71    22 1
   80    72    21 1
   81    73    21 1
   82    74    21 1
   83    75    20 1
   84    76    20 1
   85    77    20 1
   86    78    15 1
   87    79    15 1
   88    80    15 1
   89    81     8 1
   90    82     8 1
   91    83     8 1
   92    84     7 1
   93    85     7 1
   94    86     6 1
   95    87     6 1
   96    88     3 1
   97    89     3 1
   98    90     1 1
   99    91     1 1
  100    92    63 1
  101    93    63 1
  102    94    63 1
  103    95    62 1
  104    96    62 1
  105    97    62 1
  106    98    60 1
  107    99    60 1
  108   100    59 1
  109   101    59 1
  110   102    58 1
  111   103    58 1
  112   104    57 1
  113   105    57 1
  114   106    57 1
  115   107    55 1
  116   108    55 1
  117   109    54 1
  118   110    54 1
  119   111    53 1
  120   112    53 1
  121   113    19 1
  122   114    18 1
  123   115    17 1
  124   116     9 1
  125   117     2 1
  126   118    52 1
  127   119    52 1
  128   120    52 1
  129   121    51 1
  130   122    50 1
  131   123    50 1
  132   124    49 1
  133   125    49 1
  134   126    48 1
  135   127    48 1
  136   128    43 1
  137   129    43 1
  138   130    43 1
  139   131    39 1
  140   132    32 1
  141   133    31 1
  142   134    61 1
  143   135    56 1
  144   136    24 1
  145   137    24 1
  146   139   138 1
  147   140   139 1
  148   141   140 1
  149   142   140 1
  150   143   142 1
  151   144   138 1
  152   144   143 1
  153   145   144 1
  154   146   145 1
  155   147   146 1
  156   148   147 1
  157   149   148 1
  158   150   149 1
  159   151   150 1
  160   152   151 1
  161   153   152 1
  162   154   138 1
  163   155   138 1
  164   156   143 1
  165   157   147 1
  166   158   151 1
  167   160   159 1
  168   161   160 1
  169   162   161 1
  170   163   161 1
  171   164   163 1
  172   165   159 1
  173   165   164 1
  174   166   165 1
  175   167   166 1
  176   168   167 1
  177   169   168 1
  178   170   169 1
  179   171   170 1
  180   172   171 1
  181   173   172 1
  182   174   153 1
  183   174   173 1
  184   175   159 1
  185   176   159 1
  186   177   164 1
  187   178   168 1
  188   179   172 1
  189   180   179 1
  190   181   179 1
  191   182   179 1
  192   183   178 1
  193   184   178 1
  194   185   178 1
  195   186   177 1
  196   187   177 1
  197   188   177 1
  198   189   176 1
  199   190   176 1
  200   191   176 1
  201   192   175 1
  202   193   175 1
  203   194   175 1
  204   195   160 1
  205   196   160 1
  206   197   158 1
  207   198   158 1
  208   199   158 1
  209   200   157 1
  210   201   157 1
  211   202   157 1
  212   203   156 1
  213   204   156 1
  214   205   156 1
  215   206   155 1
  216   207   155 1
  217   208   155 1
  218   209   154 1
  219   210   154 1
  220   211   154 1
  221   212   141 1
  222   213   146 1
  223   214   145 1
  224   215   142 1
  225   216   142 1
  226   217   174 1
  227   218   173 1
  228   219   171 1
  229   220   170 1
  230   221   169 1
  231   222   140 1
  232   223   167 1
  233   224   166 1
  234   225   165 1
  235   226   163 1
  236   227   161 1
  237   228   139 1
  238   229   139 1
  239   230   153 1
  240   231   152 1
  241   232   150 1
  242   233   149 1
  243   234   148 1
  244   235   162 1
  245   65    153 1
  246   65    174 1
@<TRIPOS>SUBSTRUCTURE
      1 CLA               1 ****               0 ****  **** 
      2 LUT             138 ****               0 ****  **** 
