@<TRIPOS>MOLECULE
Cpptraj generated mol2 file.
  235   246     2     0     0
SMALL
USER_CHARGES


@<TRIPOS>ATOM
      1 CAA        79.5170   59.2987   34.0404 a2         1 CLA     -0.055900
      2 CAB        79.1680   62.4925   43.3199 c8         1 CLA     -0.148500
      3 CAC        72.3117   58.4681   42.3505 a2         1 CLA     -0.012600
      4 CAD        75.2761   56.6755   34.8223 ck         1 CLA      0.398800
      5 NA         78.4055   59.4458   37.3710 ns         1 CLA     -0.225500
      6 CBA        80.8713   59.2216   33.3311 a2         1 CLA     -0.135000
      7 CBB        80.2506   63.0584   43.8736 c0         1 CLA     -0.395200
      8 CBC        72.4225   56.8652   42.3000 a3         1 CLA     -0.037700
      9 CBD        76.7147   57.2715   34.5804 a1         1 CLA     -0.053900
     10 NB         78.1007   60.9103   40.0450 nm         1 CLA     -0.295700
     11 OBD        74.6373   56.0087   34.0087 o2         1 CLA     -0.494600
     12 CGA        81.3364   57.9034   32.8968 c4         1 CLA      0.827000
     13 CGD        77.7215   56.1220   34.1520 c4         1 CLA      0.655300
     14 ND         75.6647   58.2714   37.9580 nm         1 CLA     -0.291600
     15 CED        78.8575   54.1081   34.8450 a3         1 CLA      0.005400
     16 CHA        77.0660   57.9478   35.8864 cs         1 CLA     -0.123800
     17 CHB        80.1426   60.5906   38.6540 aa         1 CLA     -0.291900
     18 CHC        76.6494   61.0568   42.0986 aa         1 CLA     -0.090400
     19 CHD        73.7250   58.0052   39.5064 aa         1 CLA     -0.052000
     20 CMA        81.9312   58.4913   36.8763 a3         1 CLA     -0.230700
     21 CMB        81.4737   62.4115   40.8611 a3         1 CLA     -0.180800
     22 CMC        74.2472   60.4764   43.9481 a3         1 CLA     -0.134000
     23 CMD        72.6539   56.2050   37.1088 a3         1 CLA     -0.141100
     24 C1         82.0817   55.7743   33.5948 a2         1 CLA      0.023000
     25 C1A        78.2615   58.6340   36.2400 ac         1 CLA     -0.015100
     26 C1B        79.4464   61.1208   39.8444 cr         1 CLA      0.054700
     27 C1C        75.4957   60.3085   41.6198 cn         1 CLA     -0.005600
     28 C1D        74.3528   57.8227   38.2926 ap         1 CLA     -0.047300
     29 O1A        81.4732   57.5188   31.7420 o2         1 CLA     -0.610800
     30 O1D        78.2053   55.9806   33.0463 o2         1 CLA     -0.558200
     31 C2         82.5701   55.3267   34.9139 c8         1 CLA     -0.325100
     32 C2A        79.6313   58.6527   35.4811 a1         1 CLA      0.098600
     33 C2B        80.0396   61.8888   40.8793 cb         1 CLA      0.088500
     34 C2C        74.3833   60.0231   42.5577 cb         1 CLA      0.053700
     35 C2D        73.9109   56.9026   37.1635 cb         1 CLA      0.058900
     36 O2A        81.7249   57.1337   33.9621 o1         1 CLA     -0.437200
     37 O2D        78.1523   55.3620   35.2122 o1         1 CLA     -0.357600
     38 C3         83.5168   54.4167   35.2083 c5         1 CLA      0.031200
     39 C3A        80.6659   59.3167   36.4478 a1         1 CLA      0.166800
     40 C3B        79.0846   62.0462   41.9111 cb         1 CLA      0.035000
     41 C3C        73.5226   59.1912   41.8390 cb         1 CLA     -0.089900
     42 C3D        74.9177   57.0432   36.1737 cb         1 CLA     -0.035900
     43 C4         83.0960   52.9587   35.4130 a3         1 CLA     -0.053300
     44 C4A        79.6948   59.7642   37.5854 ac         1 CLA      0.001800
     45 C4B        77.8417   61.3384   41.3094 cn         1 CLA     -0.020900
     46 C4C        74.1891   58.8740   40.6071 cr         1 CLA     -0.044400
     47 C4D        75.9373   57.8409   36.6865 c6         1 CLA     -0.046000
     48 C5         84.9761   54.8203   35.2015 a2         1 CLA     -0.070400
     49 C6         85.4945   56.1028   35.8867 a2         1 CLA      0.043900
     50 C7         85.1481   55.9834   37.4191 a2         1 CLA     -0.150000
     51 C8         85.5098   57.2102   38.2954 a1         1 CLA      0.064200
     52 C9         87.0632   57.3396   38.4067 a3         1 CLA     -0.259300
     53 C10        84.8346   57.2674   39.7063 a2         1 CLA     -0.071900
     54 C11        84.9956   58.4731   40.6059 a2         1 CLA      0.014500
     55 C12        84.6931   57.9738   42.0515 a2         1 CLA     -0.112100
     56 C13        84.6092   59.0500   43.1601 a1         1 CLA      0.089200
     57 C14        85.9913   59.8249   43.2606 a3         1 CLA     -0.239100
     58 C15        84.3025   58.4231   44.5963 a2         1 CLA     -0.102200
     59 C16        83.0260   57.5338   44.6563 a2         1 CLA      0.023900
     60 C17        81.7897   58.3509   44.3778 a2         1 CLA     -0.105700
     61 C18        80.4593   57.9106   45.2479 a1         1 CLA      0.206800
     62 C19        79.2592   58.8430   44.8861 a3         1 CLA     -0.280100
     63 C20        80.2041   56.3559   45.0271 a3         1 CLA     -0.280100
     64 NC         75.3555   59.5959   40.5065 nx         1 CLA     -0.309200
     65 MG         76.8445   59.6160   38.9323 mg         1 CLA      0.895000
     66 HMD3       72.4291   55.9694   38.1666 dc         1 CLA      0.064300
     67 HMD2       71.8962   56.8346   36.6585 dc         1 CLA      0.064300
     68 HMD1       72.7071   55.2890   36.5658 dc         1 CLA      0.064300
     69 HMC3       74.7699   59.7767   44.5488 dc         1 CLA      0.052100
     70 HMC2       74.5999   61.4789   44.0004 dc         1 CLA      0.052100
     71 HMC1       73.2305   60.4829   44.2037 dc         1 CLA      0.052100
     72 HMB3       82.1144   61.6947   41.3506 dc         1 CLA      0.063600
     73 HMB2       81.8676   62.4921   39.8339 dc         1 CLA      0.063600
     74 HMB1       81.6493   63.4155   41.1614 dc         1 CLA      0.063600
     75 HMA3       82.5361   58.3976   35.9284 dc         1 CLA      0.058300
     76 HMA2       82.4992   59.0216   37.6641 dc         1 CLA      0.058300
     77 HMA1       81.6741   57.4941   37.2959 dc         1 CLA      0.058300
     78 HED3       78.5468   53.5374   33.9734 dc         1 CLA      0.079300
     79 HED2       79.8688   54.2952   34.6420 dc         1 CLA      0.079300
     80 HED1       78.7732   53.5321   35.7426 dc         1 CLA      0.079300
     81 HBC3       72.4323   56.6497   41.2587 dc         1 CLA      0.016300
     82 HBC2       73.3996   56.5585   42.6809 dc         1 CLA      0.016300
     83 HBC1       71.6789   56.2762   42.8339 dc         1 CLA      0.016300
     84 HBB2       80.2833   63.2901   44.9834 da         1 CLA      0.183000
     85 HBB1       81.2309   63.0214   43.4308 da         1 CLA      0.183000
     86 HBA2       80.7702   59.7195   32.4305 dc         1 CLA      0.029400
     87 HBA1       81.6485   59.7265   33.8972 dc         1 CLA      0.029400
     88 HAC2       71.9306   58.8027   43.3269 dc         1 CLA      0.029300
     89 HAC1       71.4127   58.7159   41.7244 dc         1 CLA      0.029300
     90 HAA2       78.6665   58.8413   33.5396 dc         1 CLA      0.028700
     91 HAA1       79.4389   60.3710   34.1173 dc         1 CLA      0.028700
     92 H203       81.0575   55.7059   45.0906 dc         1 CLA      0.065600
     93 H202       79.5178   56.0698   45.8350 dc         1 CLA      0.065600
     94 H201       79.7353   56.3303   44.0355 dc         1 CLA      0.065600
     95 H193       78.3515   58.5853   45.3980 dc         1 CLA      0.065600
     96 H192       79.5039   59.8709   44.9349 dc         1 CLA      0.065600
     97 H191       78.9380   58.6736   43.8481 dc         1 CLA      0.065600
     98 H172       81.9538   59.4559   44.4788 dc         1 CLA      0.027600
     99 H171       81.6434   58.0663   43.3717 dc         1 CLA      0.027600
    100 H162       83.1118   56.6582   43.9958 dc         1 CLA      0.002900
    101 H161       83.0339   57.1830   45.7242 dc         1 CLA      0.002900
    102 H152       85.0749   57.7226   44.9279 dc         1 CLA      0.029100
    103 H151       84.1728   59.1104   45.3906 dc         1 CLA      0.029100
    104 H143       86.3755   60.0478   42.2901 dc         1 CLA      0.063600
    105 H142       85.9301   60.7178   43.8286 dc         1 CLA      0.063600
    106 H141       86.7695   59.1080   43.6628 dc         1 CLA      0.063600
    107 H122       83.7952   57.4273   42.1295 dc         1 CLA      0.032500
    108 H121       85.5376   57.3079   42.2778 dc         1 CLA      0.032500
    109 H112       85.9422   58.8906   40.5199 dc         1 CLA      0.006600
    110 H111       84.2404   59.3035   40.4302 dc         1 CLA      0.006600
    111 H102       83.7832   57.0164   39.5878 dc         1 CLA      0.024100
    112 H101       85.4036   56.4348   40.1654 dc         1 CLA      0.024100
    113 HHD        72.6896   57.5580   39.6244 da         1 CLA      0.174300
    114 HHC        76.5088   61.3769   43.1404 da         1 CLA      0.136800
    115 HHB        81.1789   60.7750   38.5867 da         1 CLA      0.138300
    116 HBD        76.6187   57.9138   33.7218 dc         1 CLA      0.107700
    117 HAB        78.2114   62.3567   43.9242 da         1 CLA      0.155200
    118 H93        87.3367   58.2666   38.9894 dc         1 CLA      0.069500
    119 H92        87.4171   56.4469   38.9321 dc         1 CLA      0.069500
    120 H91        87.5962   57.4617   37.4320 dc         1 CLA      0.069500
    121 H8         85.1783   58.0524   37.7122 dc         1 CLA      0.029300
    122 H72        84.1208   55.7485   37.5228 dc         1 CLA      0.044400
    123 H71        85.7314   55.1717   37.8837 dc         1 CLA      0.044400
    124 H62        86.5942   56.1613   35.6996 dc         1 CLA      0.015600
    125 H61        85.0850   56.9628   35.4279 dc         1 CLA      0.015600
    126 H52        85.5291   54.0335   35.6899 dc         1 CLA      0.033200
    127 H51        85.2280   54.8699   34.1695 dc         1 CLA      0.033200
    128 H43        82.0049   52.9335   35.2498 dc         1 CLA      0.037000
    129 H42        83.6508   52.3632   34.7163 dc         1 CLA      0.037000
    130 H41        83.3783   52.7085   36.4320 dc         1 CLA      0.037000
    131 H3A        80.9103   60.2766   36.0805 dc         1 CLA      0.041100
    132 H2A        79.8737   57.6049   35.3786 dc         1 CLA      0.083100
    133 H2         82.1973   55.9607   35.7264 da         1 CLA      0.180900
    134 H18        80.7868   58.0732   46.2807 dc         1 CLA     -0.003900
    135 H13        83.8667   59.7380   42.9359 dc         1 CLA      0.019700
    136 H12        81.2063   55.2537   33.2322 dc         1 CLA      0.120400
    137 H11        82.8792   55.6772   32.8131 dc         1 CLA      0.120400
    138 C1         69.1905   61.9017   50.7411 Z1         2 LUT      0.509236
    139 C2         67.7307   61.5303   51.1588 Z2         2 LUT     -0.434695
    140 C3         66.8474   62.7478   51.4531 Z3         2 LUT      0.437453
    141 O3         66.4875   62.9053   52.8071 S1         2 LUT     -0.547129
    142 C4         67.2867   64.0580   50.8346 Z4         2 LUT     -0.468603
    143 C5         68.1269   63.8705   49.6318 Z5         2 LUT      0.279246
    144 C6         69.1113   62.8812   49.5638 Z6         2 LUT     -0.305473
    145 C7         69.4625   62.3279   48.2543 Z7         2 LUT      0.069402
    146 C8         70.3983   62.9684   47.5116 Z8         2 LUT     -0.191631
    147 C9         70.8163   62.7826   46.1659 Z9         2 LUT      0.196698
    148 C10        71.8957   63.5603   45.7064 Y1         2 LUT     -0.208611
    149 C11        72.6467   63.5269   44.5117 Y2         2 LUT      0.030784
    150 C12        73.7740   64.3376   44.1934 Y3         2 LUT     -0.220316
    151 C13        74.5830   64.1970   43.0047 Y4         2 LUT      0.215937
    152 C14        75.7901   64.8487   43.1058 Y5         2 LUT     -0.185793
    153 C15        76.8079   64.9977   42.0951 Y6         2 LUT     -0.057835
    154 C16        69.9031   60.4963   50.5252 Y7         2 LUT     -0.405615
    155 C17        69.9690   62.6079   51.8904 Y7         2 LUT     -0.405615
    156 C18        67.4843   64.5891   48.4569 Y9         2 LUT     -0.369639
    157 C19        70.1896   61.5739   45.5076 W1         2 LUT     -0.333362
    158 C20        74.0025   63.6622   41.7390 W2         2 LUT     -0.323439
    159 C21        87.8564   66.2981   35.3320 Z1         2 LUT      0.406104
    160 C22        88.3918   65.8145   33.9553 Z2         2 LUT     -0.404965
    161 C23        88.4112   66.6873   32.8293 Z3         2 LUT      0.391255
    162 O23        88.9763   65.8102   31.8452 S1         2 LUT     -0.528210
    163 C24        86.9722   67.2405   32.6130 W6         2 LUT     -0.258361
    164 C25        86.0801   67.3726   33.5914 Z5         2 LUT      0.133546
    165 C26        86.3777   66.7547   35.0966 W8         2 LUT     -0.147008
    166 C27        85.7229   67.5848   36.1644 Z7         2 LUT      0.023843
    167 C28        84.4762   67.3479   36.6191 Z8         2 LUT     -0.216987
    168 C29        83.9485   67.7817   37.9872 Z9         2 LUT      0.206524
    169 C30        82.9888   66.8716   38.5177 Y1         2 LUT     -0.215556
    170 C31        82.1765   67.0770   39.6791 Y2         2 LUT      0.025142
    171 C32        81.2560   66.1349   40.1054 Y3         2 LUT     -0.212209
    172 C33        80.2835   66.3965   41.1699 Y4         2 LUT      0.240937
    173 C34        79.1241   65.6504   41.1927 Y5         2 LUT     -0.218862
    174 C35        77.9882   65.7421   42.0794 Y6         2 LUT     -0.023547
    175 C36        88.9072   67.4399   35.6981 Y7         2 LUT     -0.393485
    176 C37        88.0403   65.2309   36.3849 Y7         2 LUT     -0.393485
    177 C38        84.7340   68.0519   33.2703 Y9         2 LUT     -0.387526
    178 C39        84.3154   69.0650   38.7235 W1         2 LUT     -0.322618
    179 C40        80.3630   67.6424   42.0248 W2         2 LUT     -0.358472
    180 H403       79.8702   68.4915   41.5355 R7         2 LUT      0.097720
    181 H402       79.9748   67.5067   43.0465 R7         2 LUT      0.097720
    182 H401       81.4305   67.9794   42.0994 R7         2 LUT      0.097720
    183 H393       84.9601   68.9642   39.5484 R4         2 LUT      0.082505
    184 H392       84.9206   69.7416   38.0730 R4         2 LUT      0.082505
    185 H391       83.5460   69.6143   39.1544 R4         2 LUT      0.082505
    186 H383       84.5038   68.9533   33.8773 R1         2 LUT      0.104030
    187 H382       84.6784   68.3984   32.2452 R1         2 LUT      0.104030
    188 H381       83.8203   67.4311   33.3094 R1         2 LUT      0.104030
    189 H373       87.3958   64.3380   36.2112 T4         2 LUT      0.089537
    190 H372       89.1005   64.9171   36.3046 T4         2 LUT      0.089537
    191 H371       87.9114   65.5696   37.4506 T4         2 LUT      0.089537
    192 H363       88.7171   68.2945   34.9884 T4         2 LUT      0.089537
    193 H362       88.7816   67.5879   36.8059 T4         2 LUT      0.089537
    194 H361       90.0151   67.1049   35.5339 T4         2 LUT      0.089537
    195 H222       89.3349   65.3546   33.9478 U2         2 LUT      0.127376
    196 H221       87.8546   64.8512   33.6188 U2         2 LUT      0.127376
    197 H203       74.3934   62.7220   41.4756 R7         2 LUT      0.087068
    198 H202       72.9399   63.4934   41.7287 R7         2 LUT      0.087068
    199 H201       74.3226   64.3167   40.8898 R7         2 LUT      0.087068
    200 H193       70.4858   60.6361   45.9586 R4         2 LUT      0.089716
    201 H192       69.0939   61.6456   45.5558 R4         2 LUT      0.089716
    202 H191       70.3469   61.3845   44.4432 R4         2 LUT      0.089716
    203 H183       67.4847   65.6552   48.6775 R1         2 LUT      0.094572
    204 H182       67.8635   64.3838   47.5330 R1         2 LUT      0.094572
    205 H181       66.3747   64.3401   48.3666 R1         2 LUT      0.094572
    206 H173       69.6084   63.6020   52.1764 T4         2 LUT      0.093752
    207 H172       69.9378   62.0854   52.8364 T4         2 LUT      0.093752
    208 H171       71.0012   62.7959   51.5832 T4         2 LUT      0.093752
    209 H163       69.2861   59.6799   50.1444 T4         2 LUT      0.093752
    210 H162       70.7619   60.4204   49.8720 T4         2 LUT      0.093752
    211 H161       70.3418   60.1272   51.4293 T4         2 LUT      0.093752
    212 HO3        67.2103   63.0925   53.4557 Q1         2 LUT      0.300121
    213 H8         70.6821   63.9273   47.9988 U7         2 LUT      0.080784
    214 H7         69.0772   61.4035   47.8771 U6         2 LUT      0.042190
    215 H42        66.4401   64.6165   50.5351 U5         2 LUT      0.145166
    216 H41        67.8401   64.6808   51.5464 U5         2 LUT      0.145166
    217 H35        78.2124   66.3876   42.8878 T3         2 LUT      0.077919
    218 H34        78.9757   64.9509   40.3976 T2         2 LUT      0.073626
    219 H32        81.1146   65.1939   39.5226 T1         2 LUT      0.092510
    220 H31        82.3381   68.0563   40.1332 U9         2 LUT      0.070048
    221 H30        82.7673   66.0240   37.8753 U8         2 LUT      0.085442
    222 H3         65.8330   62.4628   50.9963 U3         2 LUT     -0.031596
    223 H28        83.8001   66.7172   36.0289 U7         2 LUT      0.084728
    224 H27        86.3689   68.2190   36.7824 U6         2 LUT      0.087291
    225 H26        85.7295   65.8753   34.9363 Q6         2 LUT      0.075325
    226 H24        86.8370   67.6316   31.6384 Q5         2 LUT      0.094482
    227 H23        89.1304   67.5274   32.8978 U3         2 LUT     -0.024869
    228 H22        67.3192   60.9504   50.2335 U2         2 LUT      0.127376
    229 H21        67.5908   60.8935   52.0110 U2         2 LUT      0.127376
    230 H15        76.7601   64.2969   41.2375 T3         2 LUT      0.093200
    231 H14        75.9158   65.2905   44.0878 T2         2 LUT      0.068865
    232 H12        74.0727   65.0515   44.9642 T1         2 LUT      0.095507
    233 H11        72.2992   62.8083   43.7869 U9         2 LUT      0.068930
    234 H10        72.2715   64.3327   46.3839 U8         2 LUT      0.083911
    235 H1         88.7613   66.0580   30.9413 Q1         2 LUT      0.297311
@<TRIPOS>BOND
    1     6     1 1
    2     7     2 1
    3     8     3 1
    4     9     4 1
    5    11     4 1
    6    12     6 1
    7    13     9 1
    8    16     9 1
    9    25     5 1
   10    25    16 1
   11    26    10 1
   12    26    17 1
   13    27    18 1
   14    28    14 1
   15    28    19 1
   16    29    12 1
   17    30    13 1
   18    31    24 1
   19    32     1 1
   20    32    25 1
   21    33    21 1
   22    33    26 1
   23    34    22 1
   24    34    27 1
   25    35    23 1
   26    35    28 1
   27    36    12 1
   28    36    24 1
   29    37    13 1
   30    37    15 1
   31    38    31 1
   32    39    20 1
   33    39    32 1
   34    40     2 1
   35    40    33 1
   36    41     3 1
   37    41    34 1
   38    42     4 1
   39    42    35 1
   40    43    38 1
   41    44     5 1
   42    44    17 1
   43    44    39 1
   44    45    10 1
   45    45    18 1
   46    45    40 1
   47    46    19 1
   48    46    41 1
   49    47    14 1
   50    47    16 1
   51    47    42 1
   52    48    38 1
   53    49    48 1
   54    50    49 1
   55    51    50 1
   56    52    51 1
   57    53    51 1
   58    54    53 1
   59    55    54 1
   60    56    55 1
   61    57    56 1
   62    58    56 1
   63    59    58 1
   64    60    59 1
   65    61    60 1
   66    62    61 1
   67    63    61 1
   68    64    27 1
   69    64    46 1
   70    65     5 1
   71    65    10 1
   72    65    64 1
   73    65    14 1
   74    66    23 1
   75    67    23 1
   76    68    23 1
   77    69    22 1
   78    70    22 1
   79    71    22 1
   80    72    21 1
   81    73    21 1
   82    74    21 1
   83    75    20 1
   84    76    20 1
   85    77    20 1
   86    78    15 1
   87    79    15 1
   88    80    15 1
   89    81     8 1
   90    82     8 1
   91    83     8 1
   92    84     7 1
   93    85     7 1
   94    86     6 1
   95    87     6 1
   96    88     3 1
   97    89     3 1
   98    90     1 1
   99    91     1 1
  100    92    63 1
  101    93    63 1
  102    94    63 1
  103    95    62 1
  104    96    62 1
  105    97    62 1
  106    98    60 1
  107    99    60 1
  108   100    59 1
  109   101    59 1
  110   102    58 1
  111   103    58 1
  112   104    57 1
  113   105    57 1
  114   106    57 1
  115   107    55 1
  116   108    55 1
  117   109    54 1
  118   110    54 1
  119   111    53 1
  120   112    53 1
  121   113    19 1
  122   114    18 1
  123   115    17 1
  124   116     9 1
  125   117     2 1
  126   118    52 1
  127   119    52 1
  128   120    52 1
  129   121    51 1
  130   122    50 1
  131   123    50 1
  132   124    49 1
  133   125    49 1
  134   126    48 1
  135   127    48 1
  136   128    43 1
  137   129    43 1
  138   130    43 1
  139   131    39 1
  140   132    32 1
  141   133    31 1
  142   134    61 1
  143   135    56 1
  144   136    24 1
  145   137    24 1
  146   139   138 1
  147   140   139 1
  148   141   140 1
  149   142   140 1
  150   143   142 1
  151   144   138 1
  152   144   143 1
  153   145   144 1
  154   146   145 1
  155   147   146 1
  156   148   147 1
  157   149   148 1
  158   150   149 1
  159   151   150 1
  160   152   151 1
  161   153   152 1
  162   154   138 1
  163   155   138 1
  164   156   143 1
  165   157   147 1
  166   158   151 1
  167   160   159 1
  168   161   160 1
  169   162   161 1
  170   163   161 1
  171   164   163 1
  172   165   159 1
  173   165   164 1
  174   166   165 1
  175   167   166 1
  176   168   167 1
  177   169   168 1
  178   170   169 1
  179   171   170 1
  180   172   171 1
  181   173   172 1
  182   174   153 1
  183   174   173 1
  184   175   159 1
  185   176   159 1
  186   177   164 1
  187   178   168 1
  188   179   172 1
  189   180   179 1
  190   181   179 1
  191   182   179 1
  192   183   178 1
  193   184   178 1
  194   185   178 1
  195   186   177 1
  196   187   177 1
  197   188   177 1
  198   189   176 1
  199   190   176 1
  200   191   176 1
  201   192   175 1
  202   193   175 1
  203   194   175 1
  204   195   160 1
  205   196   160 1
  206   197   158 1
  207   198   158 1
  208   199   158 1
  209   200   157 1
  210   201   157 1
  211   202   157 1
  212   203   156 1
  213   204   156 1
  214   205   156 1
  215   206   155 1
  216   207   155 1
  217   208   155 1
  218   209   154 1
  219   210   154 1
  220   211   154 1
  221   212   141 1
  222   213   146 1
  223   214   145 1
  224   215   142 1
  225   216   142 1
  226   217   174 1
  227   218   173 1
  228   219   171 1
  229   220   170 1
  230   221   169 1
  231   222   140 1
  232   223   167 1
  233   224   166 1
  234   225   165 1
  235   226   163 1
  236   227   161 1
  237   228   139 1
  238   229   139 1
  239   230   153 1
  240   231   152 1
  241   232   150 1
  242   233   149 1
  243   234   148 1
  244   235   162 1
  245   65    153 1
  246   65    174 1
@<TRIPOS>SUBSTRUCTURE
      1 CLA               1 ****               0 ****  **** 
      2 LUT             138 ****               0 ****  **** 
