@<TRIPOS>MOLECULE
Cpptraj generated mol2 file.
  235   246     2     0     0
SMALL
USER_CHARGES


@<TRIPOS>ATOM
      1 CAA        79.4042   58.3235   34.0060 a2         1 CLA     -0.055900
      2 CAB        79.6638   61.6399   43.0586 c8         1 CLA     -0.148500
      3 CAC        72.7726   57.6048   42.6892 a2         1 CLA     -0.012600
      4 CAD        75.0905   55.8104   35.1809 ck         1 CLA      0.398800
      5 NA         78.3615   58.7176   37.3298 ns         1 CLA     -0.225500
      6 CBA        80.5095   58.0359   32.9039 a2         1 CLA     -0.135000
      7 CBB        80.9416   61.6045   43.6727 c0         1 CLA     -0.395200
      8 CBC        73.1077   56.1206   42.9166 a3         1 CLA     -0.037700
      9 CBD        76.6319   56.2132   34.8378 a1         1 CLA     -0.053900
     10 NB         78.2730   59.9726   40.0545 nm         1 CLA     -0.295700
     11 OBD        74.3632   55.1114   34.5288 o2         1 CLA     -0.494600
     12 CGA        80.9036   56.6293   32.6718 c4         1 CLA      0.827000
     13 CGD        77.3661   54.8812   34.8572 c4         1 CLA      0.655300
     14 ND         75.6876   57.7104   37.9960 nm         1 CLA     -0.291600
     15 CED        77.8587   53.0196   36.1611 a3         1 CLA      0.005400
     16 CHA        76.9806   57.2339   35.9647 cs         1 CLA     -0.123800
     17 CHB        80.2077   59.8525   38.4567 aa         1 CLA     -0.291900
     18 CHC        76.9351   60.3999   42.1159 aa         1 CLA     -0.090400
     19 CHD        73.8689   57.4979   39.7311 aa         1 CLA     -0.052000
     20 CMA        81.6056   57.5602   36.7962 a3         1 CLA     -0.230700
     21 CMB        81.6049   61.8329   40.5436 a3         1 CLA     -0.180800
     22 CMC        74.8705   59.5153   44.2549 a3         1 CLA     -0.134000
     23 CMD        72.5863   55.5842   37.5640 a3         1 CLA     -0.141100
     24 C1         81.8683   54.7046   33.7879 a2         1 CLA      0.023000
     25 C1A        78.2165   57.9417   36.1410 ac         1 CLA     -0.015100
     26 C1B        79.5427   60.2814   39.6575 cr         1 CLA      0.054700
     27 C1C        75.8071   59.6511   41.8016 cn         1 CLA     -0.005600
     28 C1D        74.4541   57.2206   38.4596 ap         1 CLA     -0.047300
     29 O1A        80.7649   55.8817   31.6732 o2         1 CLA     -0.610800
     30 O1D        78.1430   54.4110   33.9962 o2         1 CLA     -0.558200
     31 C2         82.5054   54.4259   35.2160 c8         1 CLA     -0.325100
     32 C2A        79.5424   57.7315   35.4021 a1         1 CLA      0.098600
     33 C2B        80.2479   61.0813   40.6602 cb         1 CLA      0.088500
     34 C2C        74.8220   59.2396   42.7792 cb         1 CLA      0.053700
     35 C2D        73.9030   56.3333   37.4729 cb         1 CLA      0.058900
     36 O2A        81.5219   56.1504   33.8197 o1         1 CLA     -0.437200
     37 O2D        77.0891   54.2279   36.0540 o1         1 CLA     -0.357600
     38 C3         83.7594   53.9080   35.4156 c5         1 CLA      0.031200
     39 C3A        80.4892   58.5274   36.2808 a1         1 CLA      0.166800
     40 C3B        79.3845   61.1132   41.7423 cb         1 CLA      0.035000
     41 C3C        73.9052   58.4622   42.1359 cb         1 CLA     -0.089900
     42 C3D        74.8757   56.3118   36.4646 cb         1 CLA     -0.035900
     43 C4         84.2550   52.4318   35.3492 a3         1 CLA     -0.053300
     44 C4A        79.6481   59.0662   37.4135 ac         1 CLA      0.001800
     45 C4B        78.1023   60.5439   41.3058 cn         1 CLA     -0.020900
     46 C4C        74.3107   58.4036   40.7614 cr         1 CLA     -0.044400
     47 C4D        75.9262   57.1569   36.8660 c6         1 CLA     -0.046000
     48 C5         84.9394   54.9148   35.4215 a2         1 CLA     -0.070400
     49 C6         85.2738   55.4435   36.8335 a2         1 CLA      0.043900
     50 C7         86.5387   56.3039   36.6723 a2         1 CLA     -0.150000
     51 C8         86.8814   57.3398   37.7977 a1         1 CLA      0.064200
     52 C9         88.0815   58.2564   37.5070 a3         1 CLA     -0.259300
     53 C10        86.9901   56.6270   39.2367 a2         1 CLA     -0.071900
     54 C11        87.3446   57.4855   40.4033 a2         1 CLA      0.014500
     55 C12        87.4600   56.5905   41.6401 a2         1 CLA     -0.112100
     56 C13        87.9262   57.3369   42.9336 a1         1 CLA      0.089200
     57 C14        89.2557   58.1623   42.8736 a3         1 CLA     -0.239100
     58 C15        87.8525   56.3266   44.1381 a2         1 CLA     -0.102200
     59 C16        88.0279   56.8453   45.5732 a2         1 CLA      0.023900
     60 C17        86.7453   57.5294   46.0051 a2         1 CLA     -0.105700
     61 C18        86.7276   58.1314   47.5251 a1         1 CLA      0.206800
     62 C19        85.5897   59.2166   47.6335 a3         1 CLA     -0.280100
     63 C20        86.2695   56.9338   48.4644 a3         1 CLA     -0.280100
     64 NC         75.5065   59.1148   40.5904 nx         1 CLA     -0.309200
     65 MG         76.8598   59.0579   38.8548 mg         1 CLA      0.895000
     66 HMD3       72.4728   54.9752   36.6210 dc         1 CLA      0.064300
     67 HMD2       72.6658   54.8950   38.3973 dc         1 CLA      0.064300
     68 HMD1       71.7273   56.2342   37.7128 dc         1 CLA      0.064300
     69 HMC3       73.9468   59.9705   44.6302 dc         1 CLA      0.052100
     70 HMC2       74.9168   58.5530   44.7454 dc         1 CLA      0.052100
     71 HMC1       75.6657   60.1212   44.5792 dc         1 CLA      0.052100
     72 HMB3       82.4529   61.1127   40.5482 dc         1 CLA      0.063600
     73 HMB2       81.5926   62.2228   39.5655 dc         1 CLA      0.063600
     74 HMB1       81.6535   62.6452   41.2972 dc         1 CLA      0.063600
     75 HMA3       81.1532   56.6742   37.2021 dc         1 CLA      0.058300
     76 HMA2       82.2922   57.2594   35.9867 dc         1 CLA      0.058300
     77 HMA1       82.1277   58.0749   37.5793 dc         1 CLA      0.058300
     78 HED3       77.5907   52.2848   35.3970 dc         1 CLA      0.079300
     79 HED2       78.9255   53.1941   36.0845 dc         1 CLA      0.079300
     80 HED1       77.6947   52.5760   37.1081 dc         1 CLA      0.079300
     81 HBC3       73.2521   55.7113   41.9660 dc         1 CLA      0.016300
     82 HBC2       74.0143   55.9601   43.4563 dc         1 CLA      0.016300
     83 HBC1       72.3915   55.5410   43.4433 dc         1 CLA      0.016300
     84 HBB2       81.1618   61.9955   44.7152 da         1 CLA      0.183000
     85 HBB1       81.8175   61.2106   43.1241 da         1 CLA      0.183000
     86 HBA2       80.3445   58.4711   31.9272 dc         1 CLA      0.029400
     87 HBA1       81.3929   58.5948   33.2782 dc         1 CLA      0.029400
     88 HAC2       72.4231   57.9589   43.6455 dc         1 CLA      0.029300
     89 HAC1       71.9201   57.7688   42.0789 dc         1 CLA      0.029300
     90 HAA2       78.4727   57.8871   33.5642 dc         1 CLA      0.028700
     91 HAA1       79.1855   59.4118   33.9489 dc         1 CLA      0.028700
     92 H203       85.2618   56.5602   48.2364 dc         1 CLA      0.065600
     93 H202       86.9660   56.1289   48.3291 dc         1 CLA      0.065600
     94 H201       86.3420   57.1575   49.5004 dc         1 CLA      0.065600
     95 H193       85.6024   59.9422   46.8222 dc         1 CLA      0.065600
     96 H192       84.5741   58.8422   47.6355 dc         1 CLA      0.065600
     97 H191       85.8060   59.6849   48.6010 dc         1 CLA      0.065600
     98 H172       86.3819   58.2885   45.3052 dc         1 CLA      0.027600
     99 H171       86.0167   56.7951   46.0598 dc         1 CLA      0.027600
    100 H162       88.0709   56.0077   46.1985 dc         1 CLA      0.002900
    101 H161       88.8944   57.5218   45.7793 dc         1 CLA      0.002900
    102 H152       86.8398   55.8510   43.9071 dc         1 CLA      0.029100
    103 H151       88.5195   55.4648   43.9452 dc         1 CLA      0.029100
    104 H143       89.1241   59.0289   42.2262 dc         1 CLA      0.063600
    105 H142       89.5147   58.5512   43.8216 dc         1 CLA      0.063600
    106 H141       90.1235   57.6453   42.5005 dc         1 CLA      0.063600
    107 H122       86.6526   55.9723   41.7973 dc         1 CLA      0.032500
    108 H121       88.3521   56.0488   41.4378 dc         1 CLA      0.032500
    109 H112       88.2733   57.9869   40.2597 dc         1 CLA      0.006600
    110 H111       86.5634   58.2298   40.4076 dc         1 CLA      0.006600
    111 H102       86.0310   56.0912   39.4239 dc         1 CLA      0.024100
    112 H101       87.7315   55.8436   39.1753 dc         1 CLA      0.024100
    113 HHD        73.0156   56.7738   39.9383 da         1 CLA      0.174300
    114 HHC        76.9841   60.7526   43.1496 da         1 CLA      0.136800
    115 HHB        81.2785   60.0287   38.4173 da         1 CLA      0.138300
    116 HBD        76.5545   56.6759   33.8335 dc         1 CLA      0.107700
    117 HAB        78.8775   62.0552   43.6596 da         1 CLA      0.155200
    118 H93        87.8188   59.1715   38.0820 dc         1 CLA      0.069500
    119 H92        88.9678   57.7285   37.7966 dc         1 CLA      0.069500
    120 H91        88.0582   58.4945   36.4308 dc         1 CLA      0.069500
    121 H8         86.0593   58.0808   37.8073 dc         1 CLA      0.029300
    122 H72        87.3922   55.7268   36.4926 dc         1 CLA      0.044400
    123 H71        86.2384   57.0035   35.9355 dc         1 CLA      0.044400
    124 H62        84.4594   55.9626   37.1801 dc         1 CLA      0.015600
    125 H61        85.4452   54.5855   37.5045 dc         1 CLA      0.015600
    126 H52        85.8792   54.4225   35.0597 dc         1 CLA      0.033200
    127 H51        84.6476   55.8028   34.8296 dc         1 CLA      0.033200
    128 H43        83.4375   51.7656   35.0280 dc         1 CLA      0.037000
    129 H42        85.0462   52.3000   34.6322 dc         1 CLA      0.037000
    130 H41        84.6557   52.1081   36.3513 dc         1 CLA      0.037000
    131 H3A        81.0837   59.3046   35.7909 dc         1 CLA      0.041100
    132 H2A        79.5185   56.5989   35.4555 dc         1 CLA      0.083100
    133 H2         81.8233   54.5348   36.0893 da         1 CLA      0.180900
    134 H18        87.7253   58.5637   47.8118 dc         1 CLA     -0.003900
    135 H13        87.1656   58.1119   43.1458 dc         1 CLA      0.019700
    136 H12        81.0179   54.0594   33.7716 dc         1 CLA      0.120400
    137 H11        82.5547   54.2931   33.0644 dc         1 CLA      0.120400
    138 C1         69.3773   60.8187   50.0919 Z1         2 LUT      0.509236
    139 C2         68.8053   61.5599   51.2755 Z2         2 LUT     -0.434695
    140 C3         67.2878   61.8468   51.2096 Z3         2 LUT      0.437453
    141 O3         66.8935   62.4082   52.4173 S1         2 LUT     -0.547129
    142 C4         67.1188   62.7701   50.0503 Z4         2 LUT     -0.468603
    143 C5         67.8344   62.3290   48.8414 Z5         2 LUT      0.279246
    144 C6         68.7960   61.3783   48.8090 Z6         2 LUT     -0.305473
    145 C7         69.6437   61.1639   47.6674 Z7         2 LUT      0.069402
    146 C8         70.2893   62.0203   46.8434 Z8         2 LUT     -0.191631
    147 C9         71.0915   61.8577   45.5946 Z9         2 LUT      0.196698
    148 C10        71.9421   62.8502   45.1053 Y1         2 LUT     -0.208611
    149 C11        72.7618   62.8468   43.8927 Y2         2 LUT      0.030784
    150 C12        73.9565   63.4804   43.7360 Y3         2 LUT     -0.220316
    151 C13        74.7451   63.4272   42.5528 Y4         2 LUT      0.215937
    152 C14        75.9671   63.9684   42.6226 Y5         2 LUT     -0.185793
    153 C15        76.9126   64.2509   41.5960 Y6         2 LUT     -0.057835
    154 C16        68.8925   59.3273   50.3333 Y7         2 LUT     -0.405615
    155 C17        70.8883   60.6468   50.3160 Y7         2 LUT     -0.405615
    156 C18        67.5492   63.3240   47.7834 Y9         2 LUT     -0.369639
    157 C19        70.8462   60.5990   44.7527 W1         2 LUT     -0.333362
    158 C20        74.1373   62.7955   41.3393 W2         2 LUT     -0.323439
    159 C21        88.1837   65.8981   35.1022 Z1         2 LUT      0.406104
    160 C22        88.8873   65.1010   33.9244 Z2         2 LUT     -0.404965
    161 C23        88.9216   65.8366   32.6338 Z3         2 LUT      0.391255
    162 O23        89.0357   64.7494   31.6936 S1         2 LUT     -0.528210
    163 C24        87.7940   66.7752   32.3713 W6         2 LUT     -0.258361
    164 C25        86.7861   67.0081   33.2981 Z5         2 LUT      0.133546
    165 C26        86.7070   66.2827   34.6517 W8         2 LUT     -0.147008
    166 C27        85.9385   66.9520   35.7620 Z7         2 LUT      0.023843
    167 C28        84.6870   66.6701   36.2155 Z8         2 LUT     -0.216987
    168 C29        83.9994   67.1554   37.3792 Z9         2 LUT      0.206524
    169 C30        83.0166   66.3171   37.8489 Y1         2 LUT     -0.215556
    170 C31        82.2415   66.4045   39.0958 Y2         2 LUT      0.025142
    171 C32        81.1520   65.6072   39.3220 Y3         2 LUT     -0.212209
    172 C33        80.3321   65.5859   40.5769 Y4         2 LUT      0.240937
    173 C34        79.1692   64.8641   40.6187 Y5         2 LUT     -0.218862
    174 C35        78.1978   64.6922   41.7659 Y6         2 LUT     -0.023547
    175 C36        89.2335   66.9340   35.4632 Y7         2 LUT     -0.393485
    176 C37        88.1537   65.0180   36.4114 Y7         2 LUT     -0.393485
    177 C38        85.6306   67.8269   33.0397 Y9         2 LUT     -0.387526
    178 C39        84.6230   68.2104   38.2568 W1         2 LUT     -0.322618
    179 C40        80.7656   66.4975   41.7203 W2         2 LUT     -0.358472
    180 H403       81.8457   66.5558   41.8689 R7         2 LUT      0.097720
    181 H402       80.4167   67.5215   41.4692 R7         2 LUT      0.097720
    182 H401       80.3206   66.1593   42.6235 R7         2 LUT      0.097720
    183 H393       84.9332   69.0923   37.7395 R4         2 LUT      0.082505
    184 H392       83.8787   68.7541   38.9178 R4         2 LUT      0.082505
    185 H391       85.4432   67.9439   38.9693 R4         2 LUT      0.082505
    186 H383       85.6491   68.3098   32.0015 R1         2 LUT      0.104030
    187 H382       84.7968   67.2047   33.0259 R1         2 LUT      0.104030
    188 H381       85.4598   68.5051   33.8840 R1         2 LUT      0.104030
    189 H373       89.1680   64.8105   36.8675 T4         2 LUT      0.089537
    190 H372       87.6518   65.6715   37.1648 T4         2 LUT      0.089537
    191 H371       87.6146   64.0739   36.2579 T4         2 LUT      0.089537
    192 H363       90.2249   66.4784   35.6125 T4         2 LUT      0.089537
    193 H362       89.4461   67.6610   34.7594 T4         2 LUT      0.089537
    194 H361       88.9185   67.4925   36.3591 T4         2 LUT      0.089537
    195 H222       89.8582   64.6801   34.2324 U2         2 LUT      0.127376
    196 H221       88.2282   64.2394   33.8655 U2         2 LUT      0.127376
    197 H203       73.1388   63.0920   41.0997 R7         2 LUT      0.087068
    198 H202       74.7069   62.9415   40.4608 R7         2 LUT      0.087068
    199 H201       74.0263   61.6798   41.4113 R7         2 LUT      0.087068
    200 H193       70.0069   60.7690   44.1496 R4         2 LUT      0.089716
    201 H192       71.6898   60.3262   44.0971 R4         2 LUT      0.089716
    202 H191       70.5834   59.7239   45.3719 R4         2 LUT      0.089716
    203 H183       66.5137   63.5941   47.6861 R1         2 LUT      0.094572
    204 H182       68.0620   64.2368   48.0331 R1         2 LUT      0.094572
    205 H181       67.8382   63.0766   46.7591 R1         2 LUT      0.094572
    206 H173       71.3567   61.5886   50.1684 T4         2 LUT      0.093752
    207 H172       71.1118   60.4038   51.2970 T4         2 LUT      0.093752
    208 H171       71.2951   59.9664   49.6283 T4         2 LUT      0.093752
    209 H163       69.2724   58.9831   51.3146 T4         2 LUT      0.093752
    210 H162       67.8627   59.2275   50.3715 T4         2 LUT      0.093752
    211 H161       69.3156   58.6549   49.5627 T4         2 LUT      0.093752
    212 HO3        66.1042   61.9616   52.7565 Q1         2 LUT      0.300121
    213 H8         70.2290   63.0361   47.2515 U7         2 LUT      0.080784
    214 H7         69.7811   60.0802   47.3724 U6         2 LUT      0.042190
    215 H42        65.9879   62.9844   49.9008 U5         2 LUT      0.145166
    216 H41        67.3093   63.8176   50.2972 U5         2 LUT      0.145166
    217 H35        78.4931   64.8194   42.7684 T3         2 LUT      0.077919
    218 H34        78.7864   64.3206   39.7819 T2         2 LUT      0.073626
    219 H32        80.9481   64.7928   38.6031 T1         2 LUT      0.092510
    220 H31        82.5866   67.1489   39.8662 U9         2 LUT      0.070048
    221 H30        82.5959   65.5296   37.2653 U8         2 LUT      0.085442
    222 H3         66.7927   60.8926   51.0588 U3         2 LUT     -0.031596
    223 H28        84.1078   65.8858   35.7488 U7         2 LUT      0.084728
    224 H27        86.6434   67.7195   36.1099 U6         2 LUT      0.087291
    225 H26        86.1679   65.3144   34.5127 Q6         2 LUT      0.075325
    226 H24        87.7041   67.3115   31.3636 Q5         2 LUT      0.094482
    227 H23        89.8177   66.4529   32.6634 U3         2 LUT     -0.024869
    228 H22        68.9111   61.0327   52.2166 U2         2 LUT      0.127376
    229 H21        69.3063   62.5639   51.3151 U2         2 LUT      0.127376
    230 H15        76.6298   64.1758   40.5330 T3         2 LUT      0.093200
    231 H14        76.2627   64.4049   43.6030 T2         2 LUT      0.068865
    232 H12        74.2798   64.0163   44.6146 T1         2 LUT      0.095507
    233 H11        72.3010   62.2405   43.1123 U9         2 LUT      0.068930
    234 H10        72.1531   63.6465   45.8244 U8         2 LUT      0.083911
    235 H1         89.4139   65.0175   30.8415 Q1         2 LUT      0.297311
@<TRIPOS>BOND
    1     6     1 1
    2     7     2 1
    3     8     3 1
    4     9     4 1
    5    11     4 1
    6    12     6 1
    7    13     9 1
    8    16     9 1
    9    25     5 1
   10    25    16 1
   11    26    10 1
   12    26    17 1
   13    27    18 1
   14    28    14 1
   15    28    19 1
   16    29    12 1
   17    30    13 1
   18    31    24 1
   19    32     1 1
   20    32    25 1
   21    33    21 1
   22    33    26 1
   23    34    22 1
   24    34    27 1
   25    35    23 1
   26    35    28 1
   27    36    12 1
   28    36    24 1
   29    37    13 1
   30    37    15 1
   31    38    31 1
   32    39    20 1
   33    39    32 1
   34    40     2 1
   35    40    33 1
   36    41     3 1
   37    41    34 1
   38    42     4 1
   39    42    35 1
   40    43    38 1
   41    44     5 1
   42    44    17 1
   43    44    39 1
   44    45    10 1
   45    45    18 1
   46    45    40 1
   47    46    19 1
   48    46    41 1
   49    47    14 1
   50    47    16 1
   51    47    42 1
   52    48    38 1
   53    49    48 1
   54    50    49 1
   55    51    50 1
   56    52    51 1
   57    53    51 1
   58    54    53 1
   59    55    54 1
   60    56    55 1
   61    57    56 1
   62    58    56 1
   63    59    58 1
   64    60    59 1
   65    61    60 1
   66    62    61 1
   67    63    61 1
   68    64    27 1
   69    64    46 1
   70    65     5 1
   71    65    10 1
   72    65    64 1
   73    65    14 1
   74    66    23 1
   75    67    23 1
   76    68    23 1
   77    69    22 1
   78    70    22 1
   79    71    22 1
   80    72    21 1
   81    73    21 1
   82    74    21 1
   83    75    20 1
   84    76    20 1
   85    77    20 1
   86    78    15 1
   87    79    15 1
   88    80    15 1
   89    81     8 1
   90    82     8 1
   91    83     8 1
   92    84     7 1
   93    85     7 1
   94    86     6 1
   95    87     6 1
   96    88     3 1
   97    89     3 1
   98    90     1 1
   99    91     1 1
  100    92    63 1
  101    93    63 1
  102    94    63 1
  103    95    62 1
  104    96    62 1
  105    97    62 1
  106    98    60 1
  107    99    60 1
  108   100    59 1
  109   101    59 1
  110   102    58 1
  111   103    58 1
  112   104    57 1
  113   105    57 1
  114   106    57 1
  115   107    55 1
  116   108    55 1
  117   109    54 1
  118   110    54 1
  119   111    53 1
  120   112    53 1
  121   113    19 1
  122   114    18 1
  123   115    17 1
  124   116     9 1
  125   117     2 1
  126   118    52 1
  127   119    52 1
  128   120    52 1
  129   121    51 1
  130   122    50 1
  131   123    50 1
  132   124    49 1
  133   125    49 1
  134   126    48 1
  135   127    48 1
  136   128    43 1
  137   129    43 1
  138   130    43 1
  139   131    39 1
  140   132    32 1
  141   133    31 1
  142   134    61 1
  143   135    56 1
  144   136    24 1
  145   137    24 1
  146   139   138 1
  147   140   139 1
  148   141   140 1
  149   142   140 1
  150   143   142 1
  151   144   138 1
  152   144   143 1
  153   145   144 1
  154   146   145 1
  155   147   146 1
  156   148   147 1
  157   149   148 1
  158   150   149 1
  159   151   150 1
  160   152   151 1
  161   153   152 1
  162   154   138 1
  163   155   138 1
  164   156   143 1
  165   157   147 1
  166   158   151 1
  167   160   159 1
  168   161   160 1
  169   162   161 1
  170   163   161 1
  171   164   163 1
  172   165   159 1
  173   165   164 1
  174   166   165 1
  175   167   166 1
  176   168   167 1
  177   169   168 1
  178   170   169 1
  179   171   170 1
  180   172   171 1
  181   173   172 1
  182   174   153 1
  183   174   173 1
  184   175   159 1
  185   176   159 1
  186   177   164 1
  187   178   168 1
  188   179   172 1
  189   180   179 1
  190   181   179 1
  191   182   179 1
  192   183   178 1
  193   184   178 1
  194   185   178 1
  195   186   177 1
  196   187   177 1
  197   188   177 1
  198   189   176 1
  199   190   176 1
  200   191   176 1
  201   192   175 1
  202   193   175 1
  203   194   175 1
  204   195   160 1
  205   196   160 1
  206   197   158 1
  207   198   158 1
  208   199   158 1
  209   200   157 1
  210   201   157 1
  211   202   157 1
  212   203   156 1
  213   204   156 1
  214   205   156 1
  215   206   155 1
  216   207   155 1
  217   208   155 1
  218   209   154 1
  219   210   154 1
  220   211   154 1
  221   212   141 1
  222   213   146 1
  223   214   145 1
  224   215   142 1
  225   216   142 1
  226   217   174 1
  227   218   173 1
  228   219   171 1
  229   220   170 1
  230   221   169 1
  231   222   140 1
  232   223   167 1
  233   224   166 1
  234   225   165 1
  235   226   163 1
  236   227   161 1
  237   228   139 1
  238   229   139 1
  239   230   153 1
  240   231   152 1
  241   232   150 1
  242   233   149 1
  243   234   148 1
  244   235   162 1
  245   65    153 1
  246   65    174 1
@<TRIPOS>SUBSTRUCTURE
      1 CLA               1 ****               0 ****  **** 
      2 LUT             138 ****               0 ****  **** 
