@<TRIPOS>MOLECULE
Cpptraj generated mol2 file.
  235   246     2     0     0
SMALL
USER_CHARGES


@<TRIPOS>ATOM
      1 CAA        78.6555   58.8768   33.7258 a2         1 CLA     -0.055900
      2 CAB        78.9194   61.8033   42.9973 c8         1 CLA     -0.148500
      3 CAC        71.8116   57.7748   42.1671 a2         1 CLA     -0.012600
      4 CAD        74.3872   56.7529   34.4211 ck         1 CLA      0.398800
      5 NA         77.7446   58.9170   37.2019 ns         1 CLA     -0.225500
      6 CBA        79.9273   58.7237   32.8734 a2         1 CLA     -0.135000
      7 CBB        78.0420   62.2225   43.8968 c0         1 CLA     -0.395200
      8 CBC        71.8119   56.2241   42.2153 a3         1 CLA     -0.037700
      9 CBD        75.9756   57.0919   34.3164 a1         1 CLA     -0.053900
     10 NB         77.5450   60.1193   39.9407 nm         1 CLA     -0.295700
     11 OBD        73.6851   56.3164   33.4736 o2         1 CLA     -0.494600
     12 CGA        80.2924   57.3069   32.4875 c4         1 CLA      0.827000
     13 CGD        76.7433   55.8110   34.0613 c4         1 CLA      0.655300
     14 ND         74.8857   58.0244   37.6815 nm         1 CLA     -0.291600
     15 CED        77.3500   53.5215   34.6409 a3         1 CLA      0.005400
     16 CHA        76.2821   57.7408   35.6442 cs         1 CLA     -0.123800
     17 CHB        79.4677   60.2971   38.2157 aa         1 CLA     -0.291900
     18 CHC        76.2828   60.1597   42.0753 aa         1 CLA     -0.090400
     19 CHD        72.9454   57.8982   39.1779 aa         1 CLA     -0.052000
     20 CMA        81.1446   58.3077   36.5185 a3         1 CLA     -0.230700
     21 CMB        80.8273   61.8603   40.4997 a3         1 CLA     -0.180800
     22 CMC        73.9752   59.4353   44.0242 a3         1 CLA     -0.134000
     23 CMD        71.5293   56.3957   36.6570 a3         1 CLA     -0.141100
     24 C1         81.1561   55.1599   33.0047 a2         1 CLA      0.023000
     25 C1A        77.5419   58.2721   36.0514 ac         1 CLA     -0.015100
     26 C1B        78.7956   60.5646   39.4497 cr         1 CLA      0.054700
     27 C1C        75.1099   59.4897   41.7162 cn         1 CLA     -0.005600
     28 C1D        73.5386   57.7222   37.9203 ap         1 CLA     -0.047300
     29 O1A        80.0285   56.8308   31.3630 o2         1 CLA     -0.610800
     30 O1D        77.5578   55.7918   33.1220 o2         1 CLA     -0.558200
     31 C2         81.8438   54.5929   34.1915 c8         1 CLA     -0.325100
     32 C2A        78.8420   58.3093   35.1815 a1         1 CLA      0.098600
     33 C2B        79.3958   61.3308   40.5027 cb         1 CLA      0.088500
     34 C2C        73.9859   59.1315   42.5270 cb         1 CLA      0.053700
     35 C2D        72.9578   57.0124   36.7660 cb         1 CLA      0.058900
     36 O2A        80.9515   56.5702   33.4343 o1         1 CLA     -0.437200
     37 O2D        76.4586   54.7076   34.8555 o1         1 CLA     -0.357600
     38 C3         82.8690   53.7257   34.1233 c5         1 CLA      0.031200
     39 C3A        79.8729   59.0965   36.0431 a1         1 CLA      0.166800
     40 C3B        78.5579   61.2976   41.6502 cb         1 CLA      0.035000
     41 C3C        73.0724   58.4061   41.7246 cb         1 CLA     -0.089900
     42 C3D        74.0182   57.0565   35.7886 cb         1 CLA     -0.035900
     43 C4         82.8107   52.2607   34.3170 a3         1 CLA     -0.053300
     44 C4A        78.9511   59.4515   37.2478 ac         1 CLA      0.001800
     45 C4B        77.3835   60.4864   41.2438 cn         1 CLA     -0.020900
     46 C4C        73.5758   58.4332   40.3614 cr         1 CLA     -0.044400
     47 C4D        75.1650   57.6726   36.4062 c6         1 CLA     -0.046000
     48 C5         84.3112   54.2344   33.9959 a2         1 CLA     -0.070400
     49 C6         84.7229   55.3841   34.9221 a2         1 CLA      0.043900
     50 C7         85.1459   54.8149   36.2906 a2         1 CLA     -0.150000
     51 C8         85.9394   55.9003   37.2152 a1         1 CLA      0.064200
     52 C9         87.3545   55.7664   36.8944 a3         1 CLA     -0.259300
     53 C10        85.5946   55.8221   38.7916 a2         1 CLA     -0.071900
     54 C11        84.1610   56.3961   39.1803 a2         1 CLA      0.014500
     55 C12        83.9138   56.4220   40.7490 a2         1 CLA     -0.112100
     56 C13        82.4895   56.9026   41.1996 a1         1 CLA      0.089200
     57 C14        82.0755   58.2521   40.4961 a3         1 CLA     -0.239100
     58 C15        82.0845   56.7318   42.7508 a2         1 CLA     -0.102200
     59 C16        83.0129   57.2327   43.8024 a2         1 CLA      0.023900
     60 C17        82.4756   57.0099   45.2170 a2         1 CLA     -0.105700
     61 C18        82.9069   57.9818   46.3789 a1         1 CLA      0.206800
     62 C19        82.3651   57.5712   47.7724 a3         1 CLA     -0.280100
     63 C20        84.4681   58.1440   46.3496 a3         1 CLA     -0.280100
     64 NC         74.8284   59.0470   40.3858 nx         1 CLA     -0.309200
     65 MG         76.1398   59.1354   38.7391 mg         1 CLA      0.895000
     66 HMD3       71.5099   55.5094   36.0245 dc         1 CLA      0.064300
     67 HMD2       71.2358   56.0766   37.6623 dc         1 CLA      0.064300
     68 HMD1       70.7619   57.0976   36.2820 dc         1 CLA      0.064300
     69 HMC3       72.9951   59.4642   44.5339 dc         1 CLA      0.052100
     70 HMC2       74.6299   58.6684   44.4402 dc         1 CLA      0.052100
     71 HMC1       74.4780   60.3409   44.2090 dc         1 CLA      0.052100
     72 HMB3       80.9920   62.7063   41.2154 dc         1 CLA      0.063600
     73 HMB2       81.5353   61.1174   40.7408 dc         1 CLA      0.063600
     74 HMB1       81.0573   62.3143   39.5284 dc         1 CLA      0.063600
     75 HMA3       82.0219   58.8189   36.8529 dc         1 CLA      0.058300
     76 HMA2       80.8571   57.5231   37.1853 dc         1 CLA      0.058300
     77 HMA1       81.5125   57.8085   35.6325 dc         1 CLA      0.058300
     78 HED3       77.4851   53.1045   33.6363 dc         1 CLA      0.079300
     79 HED2       78.4270   53.7808   34.8844 dc         1 CLA      0.079300
     80 HED1       76.9893   52.6276   35.1628 dc         1 CLA      0.079300
     81 HBC3       71.9065   55.6968   41.2915 dc         1 CLA      0.016300
     82 HBC2       72.7092   56.0799   42.8562 dc         1 CLA      0.016300
     83 HBC1       70.9618   55.8308   42.6937 dc         1 CLA      0.016300
     84 HBB2       78.3989   62.7656   44.8243 da         1 CLA      0.183000
     85 HBB1       76.9216   62.2097   43.7189 da         1 CLA      0.183000
     86 HBA2       79.8233   59.2547   31.9484 dc         1 CLA      0.029400
     87 HBA1       80.7262   59.2090   33.4549 dc         1 CLA      0.029400
     88 HAC2       71.6056   58.0598   43.1786 dc         1 CLA      0.029300
     89 HAC1       70.9794   58.1160   41.5668 dc         1 CLA      0.029300
     90 HAA2       77.9271   58.2676   33.3118 dc         1 CLA      0.028700
     91 HAA1       78.2619   59.9005   33.7813 dc         1 CLA      0.028700
     92 H203       84.6733   58.6796   45.4773 dc         1 CLA      0.065600
     93 H202       84.8365   58.7899   47.1886 dc         1 CLA      0.065600
     94 H201       84.9124   57.1504   46.2740 dc         1 CLA      0.065600
     95 H193       81.2409   57.8190   47.7497 dc         1 CLA      0.065600
     96 H192       82.5845   56.5510   48.0257 dc         1 CLA      0.065600
     97 H191       82.6927   58.0403   48.6540 dc         1 CLA      0.065600
     98 H172       81.4126   57.0776   45.1109 dc         1 CLA      0.027600
     99 H171       82.8571   56.0408   45.4830 dc         1 CLA      0.027600
    100 H162       83.9777   56.8215   43.7877 dc         1 CLA      0.002900
    101 H161       83.1453   58.2641   43.6681 dc         1 CLA      0.002900
    102 H152       81.1022   57.2226   42.8101 dc         1 CLA      0.029100
    103 H151       82.0167   55.6673   42.8342 dc         1 CLA      0.029100
    104 H143       82.6096   59.0596   40.9437 dc         1 CLA      0.063600
    105 H142       82.2501   58.3889   39.3810 dc         1 CLA      0.063600
    106 H141       80.9609   58.4867   40.6278 dc         1 CLA      0.063600
    107 H122       83.9844   55.3680   41.0824 dc         1 CLA      0.032500
    108 H121       84.6041   56.9557   41.3194 dc         1 CLA      0.032500
    109 H112       84.1648   57.4160   38.8633 dc         1 CLA      0.006600
    110 H111       83.3293   55.8326   38.7296 dc         1 CLA      0.006600
    111 H102       85.9160   54.8500   39.0826 dc         1 CLA      0.024100
    112 H101       86.3196   56.4286   39.3564 dc         1 CLA      0.024100
    113 HHD        71.9555   57.4465   39.3014 da         1 CLA      0.174300
    114 HHC        76.3766   60.3993   43.1368 da         1 CLA      0.136800
    115 HHB        80.4465   60.7542   38.0597 da         1 CLA      0.138300
    116 HBD        76.0490   57.6392   33.3286 dc         1 CLA      0.107700
    117 HAB        79.9754   61.9997   43.2007 da         1 CLA      0.155200
    118 H93        87.5407   56.1163   35.8501 dc         1 CLA      0.069500
    119 H92        87.9618   56.5046   37.4482 dc         1 CLA      0.069500
    120 H91        87.6274   54.7388   37.0468 dc         1 CLA      0.069500
    121 H8         85.6672   56.8557   36.7997 dc         1 CLA      0.029300
    122 H72        84.2867   54.6901   36.8167 dc         1 CLA      0.044400
    123 H71        85.6510   53.8701   36.1957 dc         1 CLA      0.044400
    124 H62        85.4205   56.0672   34.6229 dc         1 CLA      0.015600
    125 H61        83.7998   56.0008   35.0233 dc         1 CLA      0.015600
    126 H52        85.0300   53.4070   33.9471 dc         1 CLA      0.033200
    127 H51        84.3164   54.5198   32.9607 dc         1 CLA      0.033200
    128 H43        82.9884   51.6665   33.3909 dc         1 CLA      0.037000
    129 H42        83.4720   51.9689   35.1202 dc         1 CLA      0.037000
    130 H41        81.7994   51.8907   34.4096 dc         1 CLA      0.037000
    131 H3A        80.2946   60.0315   35.5153 dc         1 CLA      0.041100
    132 H2A        79.2092   57.2986   35.2204 dc         1 CLA      0.083100
    133 H2         81.5744   55.0088   35.1195 da         1 CLA      0.180900
    134 H18        82.5369   58.9678   46.1306 dc         1 CLA     -0.003900
    135 H13        81.7465   56.2340   40.8072 dc         1 CLA      0.019700
    136 H12        80.1980   54.7146   32.7799 dc         1 CLA      0.120400
    137 H11        81.8330   55.1061   32.1197 dc         1 CLA      0.120400
    138 C1         68.2967   61.1436   49.4989 Z1         2 LUT      0.509236
    139 C2         67.0114   60.6523   50.2795 Z2         2 LUT     -0.434695
    140 C3         66.0414   61.7326   50.8212 Z3         2 LUT      0.437453
    141 O3         66.3650   62.1388   52.1809 S1         2 LUT     -0.547129
    142 C4         66.1587   63.0049   49.9901 Z4         2 LUT     -0.468603
    143 C5         66.9102   63.0190   48.6649 Z5         2 LUT      0.279246
    144 C6         67.8380   62.1022   48.3675 Z6         2 LUT     -0.305473
    145 C7         68.2762   61.7237   46.9875 Z7         2 LUT      0.069402
    146 C8         69.5211   61.8944   46.5026 Z8         2 LUT     -0.191631
    147 C9         69.9932   61.7698   45.1082 Z9         2 LUT      0.196698
    148 C10        71.1553   62.3027   44.7726 Y1         2 LUT     -0.208611
    149 C11        71.8573   62.2911   43.5373 Y2         2 LUT      0.030784
    150 C12        72.8984   63.0551   43.2437 Y3         2 LUT     -0.220316
    151 C13        73.7674   63.0633   42.0523 Y4         2 LUT      0.215937
    152 C14        75.0181   63.6915   42.1120 Y5         2 LUT     -0.185793
    153 C15        76.0292   63.7494   41.1143 Y6         2 LUT     -0.057835
    154 C16        69.0719   59.8243   49.1090 Y7         2 LUT     -0.405615
    155 C17        69.1847   61.7934   50.6100 Y7         2 LUT     -0.405615
    156 C18        66.3158   63.9050   47.6413 Y9         2 LUT     -0.369639
    157 C19        69.0913   61.1606   44.0948 W1         2 LUT     -0.333362
    158 C20        73.3086   62.5413   40.7912 W2         2 LUT     -0.323439
    159 C21        87.1514   65.4106   34.5029 Z1         2 LUT      0.406104
    160 C22        87.8028   65.1122   33.1796 Z2         2 LUT     -0.404965
    161 C23        87.8204   66.2281   32.1830 Z3         2 LUT      0.391255
    162 O23        88.6758   65.7652   31.1006 S1         2 LUT     -0.528210
    163 C24        86.4632   66.8221   31.8802 W6         2 LUT     -0.258361
    164 C25        85.5221   66.8021   32.8290 Z5         2 LUT      0.133546
    165 C26        85.6893   66.0198   34.1332 W8         2 LUT     -0.147008
    166 C27        84.9835   66.6797   35.3367 Z7         2 LUT      0.023843
    167 C28        83.8805   66.1123   35.9433 Z8         2 LUT     -0.216987
    168 C29        83.3777   66.3647   37.2999 Z9         2 LUT      0.206524
    169 C30        82.1226   65.8335   37.7480 Y1         2 LUT     -0.215556
    170 C31        81.3388   65.9691   38.9746 Y2         2 LUT      0.025142
    171 C32        80.2634   65.1684   39.1712 Y3         2 LUT     -0.212209
    172 C33        79.3181   65.2970   40.2677 Y4         2 LUT      0.240937
    173 C34        78.3179   64.4103   40.3691 Y5         2 LUT     -0.218862
    174 C35        77.2522   64.3478   41.3198 Y6         2 LUT     -0.023547
    175 C36        87.9961   66.5628   35.1439 Y7         2 LUT     -0.393485
    176 C37        87.2669   64.1048   35.3954 Y7         2 LUT     -0.393485
    177 C38        84.2156   67.5236   32.5892 Y9         2 LUT     -0.387526
    178 C39        84.1277   67.3686   38.1047 W1         2 LUT     -0.322618
    179 C40        79.5941   66.4006   41.3444 W2         2 LUT     -0.358472
    180 H403       80.6265   66.3293   41.5573 R7         2 LUT      0.097720
    181 H402       79.5818   67.4534   40.9213 R7         2 LUT      0.097720
    182 H401       79.1037   66.4032   42.3710 R7         2 LUT      0.097720
    183 H393       83.7924   67.4972   39.1205 R4         2 LUT      0.082505
    184 H392       85.1826   67.1980   38.1704 R4         2 LUT      0.082505
    185 H391       84.0363   68.3259   37.6888 R4         2 LUT      0.082505
    186 H383       83.4159   66.8296   32.6855 R1         2 LUT      0.104030
    187 H382       84.0494   68.4896   33.1159 R1         2 LUT      0.104030
    188 H381       84.2205   67.8817   31.5802 R1         2 LUT      0.104030
    189 H373       86.8187   63.2490   34.8861 T4         2 LUT      0.089537
    190 H372       88.2702   63.7852   35.5711 T4         2 LUT      0.089537
    191 H371       86.7239   64.1222   36.3590 T4         2 LUT      0.089537
    192 H363       89.0976   66.2961   35.1301 T4         2 LUT      0.089537
    193 H362       87.9684   67.6267   34.7286 T4         2 LUT      0.089537
    194 H361       87.7174   66.6840   36.1534 T4         2 LUT      0.089537
    195 H222       88.9148   64.7693   33.2968 U2         2 LUT      0.127376
    196 H221       87.2293   64.3739   32.6695 U2         2 LUT      0.127376
    197 H203       73.9002   62.8950   39.9859 R7         2 LUT      0.087068
    198 H202       73.3667   61.4574   40.7442 R7         2 LUT      0.087068
    199 H201       72.2725   62.8578   40.5635 R7         2 LUT      0.087068
    200 H193       69.2319   60.1109   43.9539 R4         2 LUT      0.089716
    201 H192       68.0564   61.3924   44.3499 R4         2 LUT      0.089716
    202 H191       69.2162   61.6028   43.1532 R4         2 LUT      0.089716
    203 H183       67.1570   64.5266   47.2526 R1         2 LUT      0.094572
    204 H182       65.8711   63.3652   46.7849 R1         2 LUT      0.094572
    205 H181       65.4704   64.5041   47.9313 R1         2 LUT      0.094572
    206 H173       69.5756   61.1208   51.3935 T4         2 LUT      0.093752
    207 H172       70.0661   62.3518   50.2527 T4         2 LUT      0.093752
    208 H171       68.6499   62.4444   51.2279 T4         2 LUT      0.093752
    209 H163       69.3164   59.2469   49.9668 T4         2 LUT      0.093752
    210 H162       68.3837   59.0933   48.6373 T4         2 LUT      0.093752
    211 H161       69.9500   59.8178   48.4391 T4         2 LUT      0.093752
    212 HO3        66.2798   61.4239   52.7712 Q1         2 LUT      0.300121
    213 H8         70.2596   62.3542   47.2304 U7         2 LUT      0.080784
    214 H7         67.5022   61.3952   46.3206 U6         2 LUT      0.042190
    215 H42        65.1243   63.4117   49.8860 U5         2 LUT      0.145166
    216 H41        66.6455   63.7705   50.5891 U5         2 LUT      0.145166
    217 H35        77.3573   64.7596   42.3206 T3         2 LUT      0.077919
    218 H34        78.2641   63.7028   39.5451 T2         2 LUT      0.073626
    219 H32        80.0778   64.3583   38.4596 T1         2 LUT      0.092510
    220 H31        81.5726   66.7433   39.6813 U9         2 LUT      0.070048
    221 H30        81.6280   65.0901   37.0603 U8         2 LUT      0.085442
    222 H3         65.0352   61.3577   50.8210 U3         2 LUT     -0.031596
    223 H28        83.3785   65.2973   35.4023 U7         2 LUT      0.084728
    224 H27        85.6397   67.3091   35.9315 U6         2 LUT      0.087291
    225 H26        84.9832   65.1550   33.8563 Q6         2 LUT      0.075325
    226 H24        86.3251   67.3431   30.9903 Q5         2 LUT      0.094482
    227 H23        88.3720   67.0835   32.6312 U3         2 LUT     -0.024869
    228 H22        66.3674   60.1867   49.4198 U2         2 LUT      0.127376
    229 H21        67.2186   59.9087   51.0413 U2         2 LUT      0.127376
    230 H15        75.9108   63.3371   40.1300 T3         2 LUT      0.093200
    231 H14        75.2840   64.1198   43.0951 T2         2 LUT      0.068865
    232 H12        73.2494   63.7261   44.0943 T1         2 LUT      0.095507
    233 H11        71.4250   61.6167   42.7396 U9         2 LUT      0.068930
    234 H10        71.6670   62.9422   45.4179 U8         2 LUT      0.083911
    235 H1         88.2433   65.1492   30.4766 Q1         2 LUT      0.297311
@<TRIPOS>BOND
    1     6     1 1
    2     7     2 1
    3     8     3 1
    4     9     4 1
    5    11     4 1
    6    12     6 1
    7    13     9 1
    8    16     9 1
    9    25     5 1
   10    25    16 1
   11    26    10 1
   12    26    17 1
   13    27    18 1
   14    28    14 1
   15    28    19 1
   16    29    12 1
   17    30    13 1
   18    31    24 1
   19    32     1 1
   20    32    25 1
   21    33    21 1
   22    33    26 1
   23    34    22 1
   24    34    27 1
   25    35    23 1
   26    35    28 1
   27    36    12 1
   28    36    24 1
   29    37    13 1
   30    37    15 1
   31    38    31 1
   32    39    20 1
   33    39    32 1
   34    40     2 1
   35    40    33 1
   36    41     3 1
   37    41    34 1
   38    42     4 1
   39    42    35 1
   40    43    38 1
   41    44     5 1
   42    44    17 1
   43    44    39 1
   44    45    10 1
   45    45    18 1
   46    45    40 1
   47    46    19 1
   48    46    41 1
   49    47    14 1
   50    47    16 1
   51    47    42 1
   52    48    38 1
   53    49    48 1
   54    50    49 1
   55    51    50 1
   56    52    51 1
   57    53    51 1
   58    54    53 1
   59    55    54 1
   60    56    55 1
   61    57    56 1
   62    58    56 1
   63    59    58 1
   64    60    59 1
   65    61    60 1
   66    62    61 1
   67    63    61 1
   68    64    27 1
   69    64    46 1
   70    65     5 1
   71    65    10 1
   72    65    64 1
   73    65    14 1
   74    66    23 1
   75    67    23 1
   76    68    23 1
   77    69    22 1
   78    70    22 1
   79    71    22 1
   80    72    21 1
   81    73    21 1
   82    74    21 1
   83    75    20 1
   84    76    20 1
   85    77    20 1
   86    78    15 1
   87    79    15 1
   88    80    15 1
   89    81     8 1
   90    82     8 1
   91    83     8 1
   92    84     7 1
   93    85     7 1
   94    86     6 1
   95    87     6 1
   96    88     3 1
   97    89     3 1
   98    90     1 1
   99    91     1 1
  100    92    63 1
  101    93    63 1
  102    94    63 1
  103    95    62 1
  104    96    62 1
  105    97    62 1
  106    98    60 1
  107    99    60 1
  108   100    59 1
  109   101    59 1
  110   102    58 1
  111   103    58 1
  112   104    57 1
  113   105    57 1
  114   106    57 1
  115   107    55 1
  116   108    55 1
  117   109    54 1
  118   110    54 1
  119   111    53 1
  120   112    53 1
  121   113    19 1
  122   114    18 1
  123   115    17 1
  124   116     9 1
  125   117     2 1
  126   118    52 1
  127   119    52 1
  128   120    52 1
  129   121    51 1
  130   122    50 1
  131   123    50 1
  132   124    49 1
  133   125    49 1
  134   126    48 1
  135   127    48 1
  136   128    43 1
  137   129    43 1
  138   130    43 1
  139   131    39 1
  140   132    32 1
  141   133    31 1
  142   134    61 1
  143   135    56 1
  144   136    24 1
  145   137    24 1
  146   139   138 1
  147   140   139 1
  148   141   140 1
  149   142   140 1
  150   143   142 1
  151   144   138 1
  152   144   143 1
  153   145   144 1
  154   146   145 1
  155   147   146 1
  156   148   147 1
  157   149   148 1
  158   150   149 1
  159   151   150 1
  160   152   151 1
  161   153   152 1
  162   154   138 1
  163   155   138 1
  164   156   143 1
  165   157   147 1
  166   158   151 1
  167   160   159 1
  168   161   160 1
  169   162   161 1
  170   163   161 1
  171   164   163 1
  172   165   159 1
  173   165   164 1
  174   166   165 1
  175   167   166 1
  176   168   167 1
  177   169   168 1
  178   170   169 1
  179   171   170 1
  180   172   171 1
  181   173   172 1
  182   174   153 1
  183   174   173 1
  184   175   159 1
  185   176   159 1
  186   177   164 1
  187   178   168 1
  188   179   172 1
  189   180   179 1
  190   181   179 1
  191   182   179 1
  192   183   178 1
  193   184   178 1
  194   185   178 1
  195   186   177 1
  196   187   177 1
  197   188   177 1
  198   189   176 1
  199   190   176 1
  200   191   176 1
  201   192   175 1
  202   193   175 1
  203   194   175 1
  204   195   160 1
  205   196   160 1
  206   197   158 1
  207   198   158 1
  208   199   158 1
  209   200   157 1
  210   201   157 1
  211   202   157 1
  212   203   156 1
  213   204   156 1
  214   205   156 1
  215   206   155 1
  216   207   155 1
  217   208   155 1
  218   209   154 1
  219   210   154 1
  220   211   154 1
  221   212   141 1
  222   213   146 1
  223   214   145 1
  224   215   142 1
  225   216   142 1
  226   217   174 1
  227   218   173 1
  228   219   171 1
  229   220   170 1
  230   221   169 1
  231   222   140 1
  232   223   167 1
  233   224   166 1
  234   225   165 1
  235   226   163 1
  236   227   161 1
  237   228   139 1
  238   229   139 1
  239   230   153 1
  240   231   152 1
  241   232   150 1
  242   233   149 1
  243   234   148 1
  244   235   162 1
  245   65    153 1
  246   65    174 1
@<TRIPOS>SUBSTRUCTURE
      1 CLA               1 ****               0 ****  **** 
      2 LUT             138 ****               0 ****  **** 
