@<TRIPOS>MOLECULE
Cpptraj generated mol2 file.
  235   246     2     0     0
SMALL
USER_CHARGES


@<TRIPOS>ATOM
      1 CAA        79.5947   58.9801   34.2769 a2         1 CLA     -0.055900
      2 CAB        79.4043   62.4875   43.3679 c8         1 CLA     -0.148500
      3 CAC        72.5636   58.4338   42.4657 a2         1 CLA     -0.012600
      4 CAD        75.4624   56.4761   35.0368 ck         1 CLA      0.398800
      5 NA         78.5251   59.3234   37.5980 ns         1 CLA     -0.225500
      6 CBA        80.8351   58.8846   33.4149 a2         1 CLA     -0.135000
      7 CBB        80.5472   62.5813   44.1119 c0         1 CLA     -0.395200
      8 CBC        72.4339   56.8819   42.4801 a3         1 CLA     -0.037700
      9 CBD        76.9466   57.0728   34.7474 a1         1 CLA     -0.053900
     10 NB         78.3478   60.6415   40.2657 nm         1 CLA     -0.295700
     11 OBD        74.9616   55.6493   34.3442 o2         1 CLA     -0.494600
     12 CGA        81.2866   57.4279   33.1221 c4         1 CLA      0.827000
     13 CGD        77.8062   55.9117   34.3590 c4         1 CLA      0.655300
     14 ND         75.7529   58.3320   38.0489 nm         1 CLA     -0.291600
     15 CED        78.6102   53.7096   34.9925 a3         1 CLA      0.005400
     16 CHA        77.2842   57.8432   36.0518 cs         1 CLA     -0.123800
     17 CHB        80.2834   60.6185   38.6962 aa         1 CLA     -0.291900
     18 CHC        76.9938   60.7133   42.3004 aa         1 CLA     -0.090400
     19 CHD        73.7909   58.3102   39.4674 aa         1 CLA     -0.052000
     20 CMA        82.0983   58.6223   37.0932 a3         1 CLA     -0.230700
     21 CMB        81.5683   62.3178   40.8976 a3         1 CLA     -0.180800
     22 CMC        74.7520   60.0666   44.2856 a3         1 CLA     -0.134000
     23 CMD        72.5727   56.3713   37.1072 a3         1 CLA     -0.141100
     24 C1         82.4562   55.5226   34.0041 a2         1 CLA      0.023000
     25 C1A        78.4513   58.5496   36.4818 ac         1 CLA     -0.015100
     26 C1B        79.6120   61.0838   39.8737 cr         1 CLA      0.054700
     27 C1C        75.8470   60.0702   41.8942 cn         1 CLA     -0.005600
     28 C1D        74.4381   57.9591   38.2468 ap         1 CLA     -0.047300
     29 O1A        81.0943   56.7838   32.0881 o2         1 CLA     -0.610800
     30 O1D        78.3646   55.8131   33.2804 o2         1 CLA     -0.558200
     31 C2         82.6180   54.9938   35.3779 c8         1 CLA     -0.325100
     32 C2A        79.7678   58.4566   35.6655 a1         1 CLA      0.098600
     33 C2B        80.2518   61.7771   40.9730 cb         1 CLA      0.088500
     34 C2C        74.7978   59.6729   42.7963 cb         1 CLA      0.053700
     35 C2D        73.8611   57.1256   37.1134 cb         1 CLA      0.058900
     36 O2A        81.9700   56.9053   34.1735 o1         1 CLA     -0.437200
     37 O2D        77.8162   54.9304   35.3472 o1         1 CLA     -0.357600
     38 C3         83.6145   54.0957   35.6853 c5         1 CLA      0.031200
     39 C3A        80.7565   59.2534   36.4937 a1         1 CLA      0.166800
     40 C3B        79.2828   61.8124   42.0210 cb         1 CLA      0.035000
     41 C3C        73.8845   58.9687   41.9782 cb         1 CLA     -0.089900
     42 C3D        74.9675   57.0890   36.2511 cb         1 CLA     -0.035900
     43 C4         83.2248   52.6484   35.9090 a3         1 CLA     -0.053300
     44 C4A        79.8320   59.8862   37.6702 ac         1 CLA      0.001800
     45 C4B        78.0773   61.0902   41.5421 cn         1 CLA     -0.020900
     46 C4C        74.4505   58.9531   40.5941 cr         1 CLA     -0.044400
     47 C4D        76.0390   57.8234   36.8414 c6         1 CLA     -0.046000
     48 C5         85.0811   54.4926   35.8931 a2         1 CLA     -0.070400
     49 C6         85.4677   55.7550   36.5781 a2         1 CLA      0.043900
     50 C7         84.8008   55.8104   38.0084 a2         1 CLA     -0.150000
     51 C8         84.9722   57.0628   38.8952 a1         1 CLA      0.064200
     52 C9         86.3926   57.6948   38.9205 a3         1 CLA     -0.259300
     53 C10        84.4416   56.7246   40.2877 a2         1 CLA     -0.071900
     54 C11        83.9837   57.9240   41.0671 a2         1 CLA      0.014500
     55 C12        83.7546   57.5561   42.5221 a2         1 CLA     -0.112100
     56 C13        83.1697   58.6160   43.4468 a1         1 CLA      0.089200
     57 C14        83.9408   59.9642   43.3541 a3         1 CLA     -0.239100
     58 C15        83.0161   58.1981   44.8700 a2         1 CLA     -0.102200
     59 C16        82.4370   56.8385   45.2893 a2         1 CLA      0.023900
     60 C17        81.0089   56.6075   44.7699 a2         1 CLA     -0.105700
     61 C18        79.7696   57.2878   45.5095 a1         1 CLA      0.206800
     62 C19        78.6211   57.8262   44.5210 a3         1 CLA     -0.280100
     63 C20        79.2718   56.2361   46.4903 a3         1 CLA     -0.280100
     64 NC         75.6969   59.4802   40.6165 nx         1 CLA     -0.309200
     65 MG         77.0457   59.6192   39.0471 mg         1 CLA      0.895000
     66 HMD3       71.7491   57.0403   37.0283 dc         1 CLA      0.064300
     67 HMD2       72.6139   55.7681   36.3024 dc         1 CLA      0.064300
     68 HMD1       72.5168   55.8777   38.0403 dc         1 CLA      0.064300
     69 HMC3       73.9663   59.4045   44.7013 dc         1 CLA      0.052100
     70 HMC2       75.7167   59.9574   44.8409 dc         1 CLA      0.052100
     71 HMC1       74.4925   61.1680   44.3221 dc         1 CLA      0.052100
     72 HMB3       81.7588   63.0284   41.6190 dc         1 CLA      0.063600
     73 HMB2       82.3083   61.5063   41.1265 dc         1 CLA      0.063600
     74 HMB1       81.8510   62.6624   39.9451 dc         1 CLA      0.063600
     75 HMA3       82.6896   58.4304   36.2689 dc         1 CLA      0.058300
     76 HMA2       82.5027   59.3081   37.8988 dc         1 CLA      0.058300
     77 HMA1       81.8476   57.6840   37.6094 dc         1 CLA      0.058300
     78 HED3       78.2763   53.3224   34.0841 dc         1 CLA      0.079300
     79 HED2       79.6905   53.8903   34.8786 dc         1 CLA      0.079300
     80 HED1       78.4978   53.0210   35.7301 dc         1 CLA      0.079300
     81 HBC3       72.6300   56.4039   41.4379 dc         1 CLA      0.016300
     82 HBC2       73.0105   56.4941   43.3386 dc         1 CLA      0.016300
     83 HBC1       71.3703   56.6707   42.7395 dc         1 CLA      0.016300
     84 HBB2       80.5838   63.0779   45.0941 da         1 CLA      0.183000
     85 HBB1       81.5704   62.0850   43.8332 da         1 CLA      0.183000
     86 HBA2       80.6043   59.3981   32.4392 dc         1 CLA      0.029400
     87 HBA1       81.6583   59.4452   33.8680 dc         1 CLA      0.029400
     88 HAC2       72.4080   58.8394   43.4229 dc         1 CLA      0.029300
     89 HAC1       71.7432   58.7797   41.7867 dc         1 CLA      0.029300
     90 HAA2       78.9815   58.3125   33.7307 dc         1 CLA      0.028700
     91 HAA1       79.1348   59.9447   34.2909 dc         1 CLA      0.028700
     92 H203       79.0720   55.3257   46.0067 dc         1 CLA      0.065600
     93 H202       80.0397   56.0250   47.2342 dc         1 CLA      0.065600
     94 H201       78.2715   56.3629   46.9960 dc         1 CLA      0.065600
     95 H193       77.7816   58.0848   45.1845 dc         1 CLA      0.065600
     96 H192       78.8842   58.6395   43.8620 dc         1 CLA      0.065600
     97 H191       78.3630   56.9885   43.9743 dc         1 CLA      0.065600
     98 H172       81.0975   56.8805   43.7155 dc         1 CLA      0.027600
     99 H171       80.8450   55.5500   44.6496 dc         1 CLA      0.027600
    100 H162       83.0822   56.0565   44.8869 dc         1 CLA      0.002900
    101 H161       82.4642   56.7301   46.3552 dc         1 CLA      0.002900
    102 H152       83.9895   58.1996   45.2275 dc         1 CLA      0.029100
    103 H151       82.3672   58.9165   45.3771 dc         1 CLA      0.029100
    104 H143       83.5138   60.5965   44.1406 dc         1 CLA      0.063600
    105 H142       84.9086   59.5927   43.7864 dc         1 CLA      0.063600
    106 H141       84.0130   60.4569   42.4053 dc         1 CLA      0.063600
    107 H122       83.1122   56.7087   42.5800 dc         1 CLA      0.032500
    108 H121       84.7772   57.2398   42.8856 dc         1 CLA      0.032500
    109 H112       84.7463   58.6029   40.9657 dc         1 CLA      0.006600
    110 H111       83.0190   58.3753   40.7125 dc         1 CLA      0.006600
    111 H102       83.6865   55.9042   40.2156 dc         1 CLA      0.024100
    112 H101       85.3649   56.3692   40.8472 dc         1 CLA      0.024100
    113 HHD        72.7573   58.0337   39.7216 da         1 CLA      0.174300
    114 HHC        76.9952   61.0042   43.3293 da         1 CLA      0.136800
    115 HHB        81.3366   60.9682   38.7060 da         1 CLA      0.138300
    116 HBD        76.7360   57.7475   33.9226 dc         1 CLA      0.107700
    117 HAB        78.4957   63.0175   43.7802 da         1 CLA      0.155200
    118 H93        86.3221   58.8213   39.0845 dc         1 CLA      0.069500
    119 H92        86.9724   57.2536   39.6897 dc         1 CLA      0.069500
    120 H91        86.9480   57.6247   37.9442 dc         1 CLA      0.069500
    121 H8         84.4108   57.8757   38.3729 dc         1 CLA      0.029300
    122 H72        83.8214   55.4575   37.8773 dc         1 CLA      0.044400
    123 H71        85.2677   54.9955   38.6091 dc         1 CLA      0.044400
    124 H62        86.6257   55.8881   36.6775 dc         1 CLA      0.015600
    125 H61        85.1148   56.6445   36.0393 dc         1 CLA      0.015600
    126 H52        85.6735   53.7541   36.4321 dc         1 CLA      0.033200
    127 H51        85.4436   54.5489   34.8248 dc         1 CLA      0.033200
    128 H43        82.2256   52.4150   35.4569 dc         1 CLA      0.037000
    129 H42        83.9535   51.9453   35.5348 dc         1 CLA      0.037000
    130 H41        83.0460   52.5598   37.0030 dc         1 CLA      0.037000
    131 H3A        81.0676   60.1767   35.9757 dc         1 CLA      0.041100
    132 H2A        80.1922   57.4622   35.7773 dc         1 CLA      0.083100
    133 H2         82.0947   55.5866   36.1264 da         1 CLA      0.180900
    134 H18        80.0576   58.1550   46.1652 dc         1 CLA     -0.003900
    135 H13        82.2041   58.6954   43.0769 dc         1 CLA      0.019700
    136 H12        81.7531   54.8745   33.4636 dc         1 CLA      0.120400
    137 H11        83.3251   55.5592   33.3533 dc         1 CLA      0.120400
    138 C1         69.5230   62.0998   50.6385 Z1         2 LUT      0.509236
    139 C2         68.2170   61.6228   51.2931 Z2         2 LUT     -0.434695
    140 C3         67.1474   62.7457   51.3987 Z3         2 LUT      0.437453
    141 O3         67.1715   63.3778   52.6393 S1         2 LUT     -0.547129
    142 C4         67.2701   63.9336   50.4285 Z4         2 LUT     -0.468603
    143 C5         68.1235   63.5385   49.2439 Z5         2 LUT      0.279246
    144 C6         69.1889   62.6869   49.3099 Z6         2 LUT     -0.305473
    145 C7         69.8364   62.1234   48.1578 Z7         2 LUT      0.069402
    146 C8         70.7460   62.7560   47.3557 Z8         2 LUT     -0.191631
    147 C9         71.2869   62.3390   46.0581 Z9         2 LUT      0.196698
    148 C10        72.0269   63.1776   45.2850 Y1         2 LUT     -0.208611
    149 C11        72.6327   62.9031   43.9165 Y2         2 LUT      0.030784
    150 C12        73.6330   63.6289   43.3509 Y3         2 LUT     -0.220316
    151 C13        74.4655   63.5462   42.2094 Y4         2 LUT      0.215937
    152 C14        75.6747   64.3358   42.1981 Y5         2 LUT     -0.185793
    153 C15        76.7290   64.4475   41.2487 Y6         2 LUT     -0.057835
    154 C16        70.4907   60.7752   50.7703 Y7         2 LUT     -0.405615
    155 C17        70.1899   63.3251   51.5095 Y7         2 LUT     -0.405615
    156 C18        67.7508   64.3510   48.0040 Y9         2 LUT     -0.369639
    157 C19        70.8313   60.9610   45.5529 W1         2 LUT     -0.333362
    158 C20        73.8636   62.6270   41.1304 W2         2 LUT     -0.323439
    159 C21        88.3748   65.6240   35.5295 Z1         2 LUT      0.406104
    160 C22        89.1938   64.9957   34.4335 Z2         2 LUT     -0.404965
    161 C23        89.5946   65.8626   33.3378 Z3         2 LUT      0.391255
    162 O23        90.3960   65.0927   32.4429 S1         2 LUT     -0.528210
    163 C24        88.3817   66.5494   32.8102 W6         2 LUT     -0.258361
    164 C25        87.2654   66.6825   33.4651 Z5         2 LUT      0.133546
    165 C26        87.0171   66.0261   34.8712 W8         2 LUT     -0.147008
    166 C27        86.0135   66.7628   35.7871 Z7         2 LUT      0.023843
    167 C28        84.7887   66.4792   36.1585 Z8         2 LUT     -0.216987
    168 C29        84.0086   66.9837   37.2720 Z9         2 LUT      0.206524
    169 C30        82.9277   66.1844   37.7074 Y1         2 LUT     -0.215556
    170 C31        82.1644   66.3971   38.8947 Y2         2 LUT      0.025142
    171 C32        81.0426   65.6296   39.2498 Y3         2 LUT     -0.212209
    172 C33        80.1983   65.7958   40.4142 Y4         2 LUT      0.240937
    173 C34        78.9829   65.0532   40.4238 Y5         2 LUT     -0.218862
    174 C35        77.9213   65.0368   41.3768 Y6         2 LUT     -0.023547
    175 C36        89.1659   66.8219   36.2001 Y7         2 LUT     -0.393485
    176 C37        88.1926   64.5973   36.6491 Y7         2 LUT     -0.393485
    177 C38        86.1575   67.5723   32.7820 Y9         2 LUT     -0.387526
    178 C39        84.4843   68.2735   37.9312 W1         2 LUT     -0.322618
    179 C40        80.5740   66.9295   41.3684 W2         2 LUT     -0.358472
    180 H403       80.0673   66.7734   42.3427 R7         2 LUT      0.097720
    181 H402       81.6009   66.8373   41.6405 R7         2 LUT      0.097720
    182 H401       80.3286   67.9285   41.0320 R7         2 LUT      0.097720
    183 H393       85.4307   68.1993   38.4770 R4         2 LUT      0.082505
    184 H392       84.4869   69.1164   37.2099 R4         2 LUT      0.082505
    185 H391       83.8593   68.6793   38.7214 R4         2 LUT      0.082505
    186 H383       85.4040   66.9093   32.2740 R1         2 LUT      0.104030
    187 H382       85.6862   68.3230   33.5091 R1         2 LUT      0.104030
    188 H381       86.4985   68.2451   31.9839 R1         2 LUT      0.104030
    189 H373       87.5513   63.7630   36.3932 T4         2 LUT      0.089537
    190 H372       89.1675   64.1340   36.7648 T4         2 LUT      0.089537
    191 H371       87.8285   65.1214   37.4639 T4         2 LUT      0.089537
    192 H363       89.3414   67.6020   35.4452 T4         2 LUT      0.089537
    193 H362       88.6357   67.4068   36.9652 T4         2 LUT      0.089537
    194 H361       90.1216   66.4818   36.6124 T4         2 LUT      0.089537
    195 H222       90.1659   64.4801   34.6802 U2         2 LUT      0.127376
    196 H221       88.6725   64.1229   34.0127 U2         2 LUT      0.127376
    197 H203       74.5974   62.2860   40.3862 R7         2 LUT      0.087068
    198 H202       73.3961   61.7038   41.5181 R7         2 LUT      0.087068
    199 H201       73.1642   63.1374   40.4196 R7         2 LUT      0.087068
    200 H193       69.7913   60.9271   45.5800 R4         2 LUT      0.089716
    201 H192       71.0683   60.7155   44.5273 R4         2 LUT      0.089716
    202 H191       71.1824   60.0725   45.9982 R4         2 LUT      0.089716
    203 H183       66.7912   64.8429   48.0362 R1         2 LUT      0.094572
    204 H182       68.4763   65.1811   47.7691 R1         2 LUT      0.094572
    205 H181       67.6835   63.6531   47.1857 R1         2 LUT      0.094572
    206 H173       71.2601   63.5358   51.2239 T4         2 LUT      0.093752
    207 H172       69.7552   64.3081   51.5149 T4         2 LUT      0.093752
    208 H171       70.2672   63.0050   52.6025 T4         2 LUT      0.093752
    209 H163       70.1968   59.8795   50.3086 T4         2 LUT      0.093752
    210 H162       71.5190   61.1530   50.4891 T4         2 LUT      0.093752
    211 H161       70.6199   60.4514   51.7499 T4         2 LUT      0.093752
    212 HO3        67.0109   62.9102   53.4752 Q1         2 LUT      0.300121
    213 H8         71.0822   63.7892   47.5876 U7         2 LUT      0.080784
    214 H7         69.5858   61.1618   47.8018 U6         2 LUT      0.042190
    215 H42        66.2105   64.1266   50.3252 U5         2 LUT      0.145166
    216 H41        67.7185   64.8279   50.8441 U5         2 LUT      0.145166
    217 H35        78.1798   65.4594   42.3698 T3         2 LUT      0.077919
    218 H34        78.7249   64.4351   39.5751 T2         2 LUT      0.073626
    219 H32        80.7393   64.8235   38.6196 T1         2 LUT      0.092510
    220 H31        82.3239   67.2239   39.6499 U9         2 LUT      0.070048
    221 H30        82.6957   65.3117   37.1569 U8         2 LUT      0.085442
    222 H3         66.2039   62.1571   51.2501 U3         2 LUT     -0.031596
    223 H28        84.4226   65.5161   35.7292 U7         2 LUT      0.084728
    224 H27        86.5404   67.6975   36.1445 U6         2 LUT      0.087291
    225 H26        86.6523   65.0866   34.5951 Q6         2 LUT      0.075325
    226 H24        88.4868   66.9852   31.8228 Q5         2 LUT      0.094482
    227 H23        90.3900   66.5360   33.8281 U3         2 LUT     -0.024869
    228 H22        67.7221   60.8800   50.6665 U2         2 LUT      0.127376
    229 H21        68.4775   61.1709   52.2611 U2         2 LUT      0.127376
    230 H15        76.5801   63.9302   40.2545 T3         2 LUT      0.093200
    231 H14        75.9003   64.8228   43.1727 T2         2 LUT      0.068865
    232 H12        74.0421   64.3288   44.0474 T1         2 LUT      0.095507
    233 H11        72.2519   62.0063   43.3748 U9         2 LUT      0.068930
    234 H10        72.2760   64.1239   45.8096 U8         2 LUT      0.083911
    235 H1         90.2251   65.3342   31.5361 Q1         2 LUT      0.297311
@<TRIPOS>BOND
    1     6     1 1
    2     7     2 1
    3     8     3 1
    4     9     4 1
    5    11     4 1
    6    12     6 1
    7    13     9 1
    8    16     9 1
    9    25     5 1
   10    25    16 1
   11    26    10 1
   12    26    17 1
   13    27    18 1
   14    28    14 1
   15    28    19 1
   16    29    12 1
   17    30    13 1
   18    31    24 1
   19    32     1 1
   20    32    25 1
   21    33    21 1
   22    33    26 1
   23    34    22 1
   24    34    27 1
   25    35    23 1
   26    35    28 1
   27    36    12 1
   28    36    24 1
   29    37    13 1
   30    37    15 1
   31    38    31 1
   32    39    20 1
   33    39    32 1
   34    40     2 1
   35    40    33 1
   36    41     3 1
   37    41    34 1
   38    42     4 1
   39    42    35 1
   40    43    38 1
   41    44     5 1
   42    44    17 1
   43    44    39 1
   44    45    10 1
   45    45    18 1
   46    45    40 1
   47    46    19 1
   48    46    41 1
   49    47    14 1
   50    47    16 1
   51    47    42 1
   52    48    38 1
   53    49    48 1
   54    50    49 1
   55    51    50 1
   56    52    51 1
   57    53    51 1
   58    54    53 1
   59    55    54 1
   60    56    55 1
   61    57    56 1
   62    58    56 1
   63    59    58 1
   64    60    59 1
   65    61    60 1
   66    62    61 1
   67    63    61 1
   68    64    27 1
   69    64    46 1
   70    65     5 1
   71    65    10 1
   72    65    64 1
   73    65    14 1
   74    66    23 1
   75    67    23 1
   76    68    23 1
   77    69    22 1
   78    70    22 1
   79    71    22 1
   80    72    21 1
   81    73    21 1
   82    74    21 1
   83    75    20 1
   84    76    20 1
   85    77    20 1
   86    78    15 1
   87    79    15 1
   88    80    15 1
   89    81     8 1
   90    82     8 1
   91    83     8 1
   92    84     7 1
   93    85     7 1
   94    86     6 1
   95    87     6 1
   96    88     3 1
   97    89     3 1
   98    90     1 1
   99    91     1 1
  100    92    63 1
  101    93    63 1
  102    94    63 1
  103    95    62 1
  104    96    62 1
  105    97    62 1
  106    98    60 1
  107    99    60 1
  108   100    59 1
  109   101    59 1
  110   102    58 1
  111   103    58 1
  112   104    57 1
  113   105    57 1
  114   106    57 1
  115   107    55 1
  116   108    55 1
  117   109    54 1
  118   110    54 1
  119   111    53 1
  120   112    53 1
  121   113    19 1
  122   114    18 1
  123   115    17 1
  124   116     9 1
  125   117     2 1
  126   118    52 1
  127   119    52 1
  128   120    52 1
  129   121    51 1
  130   122    50 1
  131   123    50 1
  132   124    49 1
  133   125    49 1
  134   126    48 1
  135   127    48 1
  136   128    43 1
  137   129    43 1
  138   130    43 1
  139   131    39 1
  140   132    32 1
  141   133    31 1
  142   134    61 1
  143   135    56 1
  144   136    24 1
  145   137    24 1
  146   139   138 1
  147   140   139 1
  148   141   140 1
  149   142   140 1
  150   143   142 1
  151   144   138 1
  152   144   143 1
  153   145   144 1
  154   146   145 1
  155   147   146 1
  156   148   147 1
  157   149   148 1
  158   150   149 1
  159   151   150 1
  160   152   151 1
  161   153   152 1
  162   154   138 1
  163   155   138 1
  164   156   143 1
  165   157   147 1
  166   158   151 1
  167   160   159 1
  168   161   160 1
  169   162   161 1
  170   163   161 1
  171   164   163 1
  172   165   159 1
  173   165   164 1
  174   166   165 1
  175   167   166 1
  176   168   167 1
  177   169   168 1
  178   170   169 1
  179   171   170 1
  180   172   171 1
  181   173   172 1
  182   174   153 1
  183   174   173 1
  184   175   159 1
  185   176   159 1
  186   177   164 1
  187   178   168 1
  188   179   172 1
  189   180   179 1
  190   181   179 1
  191   182   179 1
  192   183   178 1
  193   184   178 1
  194   185   178 1
  195   186   177 1
  196   187   177 1
  197   188   177 1
  198   189   176 1
  199   190   176 1
  200   191   176 1
  201   192   175 1
  202   193   175 1
  203   194   175 1
  204   195   160 1
  205   196   160 1
  206   197   158 1
  207   198   158 1
  208   199   158 1
  209   200   157 1
  210   201   157 1
  211   202   157 1
  212   203   156 1
  213   204   156 1
  214   205   156 1
  215   206   155 1
  216   207   155 1
  217   208   155 1
  218   209   154 1
  219   210   154 1
  220   211   154 1
  221   212   141 1
  222   213   146 1
  223   214   145 1
  224   215   142 1
  225   216   142 1
  226   217   174 1
  227   218   173 1
  228   219   171 1
  229   220   170 1
  230   221   169 1
  231   222   140 1
  232   223   167 1
  233   224   166 1
  234   225   165 1
  235   226   163 1
  236   227   161 1
  237   228   139 1
  238   229   139 1
  239   230   153 1
  240   231   152 1
  241   232   150 1
  242   233   149 1
  243   234   148 1
  244   235   162 1
  245   65    153 1
  246   65    174 1
@<TRIPOS>SUBSTRUCTURE
      1 CLA               1 ****               0 ****  **** 
      2 LUT             138 ****               0 ****  **** 
