@<TRIPOS>MOLECULE
Cpptraj generated mol2 file.
  235   246     2     0     0
SMALL
USER_CHARGES


@<TRIPOS>ATOM
      1 CAA        78.1187   58.1490   34.7867 a2         1 CLA     -0.055900
      2 CAB        77.5075   61.7296   43.8660 c8         1 CLA     -0.148500
      3 CAC        71.0009   57.1253   43.1038 a2         1 CLA     -0.012600
      4 CAD        74.1233   55.3290   35.7874 ck         1 CLA      0.398800
      5 NA         76.9883   58.5200   38.0429 ns         1 CLA     -0.225500
      6 CBA        79.4577   58.2329   33.9201 a2         1 CLA     -0.135000
      7 CBB        78.6562   61.6303   44.6595 c0         1 CLA     -0.395200
      8 CBC        71.3219   55.6164   43.1915 a3         1 CLA     -0.037700
      9 CBD        75.5026   56.0185   35.5201 a1         1 CLA     -0.053900
     10 NB         76.6222   59.9879   40.7140 nm         1 CLA     -0.295700
     11 OBD        73.5111   54.6313   35.0030 o2         1 CLA     -0.494600
     12 CGA        80.1539   56.9599   33.5276 c4         1 CLA      0.827000
     13 CGD        76.4877   54.8939   35.3471 c4         1 CLA      0.655300
     14 ND         74.2013   57.5257   38.5741 nm         1 CLA     -0.291600
     15 CED        77.2802   52.8585   36.5267 a3         1 CLA      0.005400
     16 CHA        75.8349   56.9660   36.7413 cs         1 CLA     -0.123800
     17 CHB        78.5591   60.0204   39.1629 aa         1 CLA     -0.291900
     18 CHC        75.1434   60.1714   42.6487 aa         1 CLA     -0.090400
     19 CHD        72.3463   57.1018   40.1969 aa         1 CLA     -0.052000
     20 CMA        80.5620   58.5081   37.4301 a3         1 CLA     -0.230700
     21 CMB        79.7197   62.0514   41.4044 a3         1 CLA     -0.180800
     22 CMC        72.9855   59.2953   44.7150 a3         1 CLA     -0.134000
     23 CMD        71.5726   55.0168   38.0312 a3         1 CLA     -0.141100
     24 C1         81.5159   55.2508   34.5427 a2         1 CLA      0.023000
     25 C1A        76.9700   57.7397   36.9893 ac         1 CLA     -0.015100
     26 C1B        77.9366   60.3857   40.4407 cr         1 CLA      0.054700
     27 C1C        74.0634   59.2789   42.3759 cn         1 CLA     -0.005600
     28 C1D        73.1313   56.7956   39.0023 ap         1 CLA     -0.047300
     29 O1A        79.8895   56.1840   32.6383 o2         1 CLA     -0.610800
     30 O1D        77.2773   54.6495   34.4439 o2         1 CLA     -0.558200
     31 C2         82.4425   55.0137   35.7139 c8         1 CLA     -0.325100
     32 C2A        78.1946   57.8404   36.2386 a1         1 CLA      0.098600
     33 C2B        78.4842   61.2374   41.4873 cb         1 CLA      0.088500
     34 C2C        72.9679   58.8545   43.2346 cb         1 CLA      0.053700
     35 C2D        72.7251   55.8870   38.0219 cb         1 CLA      0.058900
     36 O2A        81.0387   56.6012   34.5386 o1         1 CLA     -0.437200
     37 O2D        76.4271   54.0717   36.5051 o1         1 CLA     -0.357600
     38 C3         82.5467   53.8658   36.3953 c5         1 CLA      0.031200
     39 C3A        79.1158   58.8809   36.9770 a1         1 CLA      0.166800
     40 C3B        77.4617   61.2172   42.4790 cb         1 CLA      0.035000
     41 C3C        72.1808   57.9233   42.5459 cb         1 CLA     -0.089900
     42 C3D        73.7553   55.9028   37.0918 cb         1 CLA     -0.035900
     43 C4         81.4847   53.4384   37.4177 a3         1 CLA     -0.053300
     44 C4A        78.1665   59.1815   38.0692 ac         1 CLA      0.001800
     45 C4B        76.2834   60.4618   41.8959 cn         1 CLA     -0.020900
     46 C4C        72.7848   57.8867   41.2174 cr         1 CLA     -0.044400
     47 C4D        74.6493   56.8770   37.4550 c6         1 CLA     -0.046000
     48 C5         83.7608   53.0135   35.9429 a2         1 CLA     -0.070400
     49 C6         85.1193   53.5874   36.2600 a2         1 CLA      0.043900
     50 C7         85.2172   54.2788   37.6714 a2         1 CLA     -0.150000
     51 C8         86.5694   55.1297   37.9373 a1         1 CLA      0.064200
     52 C9         87.9039   54.4827   37.5625 a3         1 CLA     -0.259300
     53 C10        86.6388   55.7532   39.2769 a2         1 CLA     -0.071900
     54 C11        85.5841   56.7747   39.7428 a2         1 CLA      0.014500
     55 C12        85.6849   57.1710   41.2108 a2         1 CLA     -0.112100
     56 C13        85.3284   56.0149   42.2783 a1         1 CLA      0.089200
     57 C14        83.9769   55.1849   42.0110 a3         1 CLA     -0.239100
     58 C15        85.3297   56.5913   43.7619 a2         1 CLA     -0.102200
     59 C16        84.4315   57.8235   44.0780 a2         1 CLA      0.023900
     60 C17        84.0941   57.9533   45.6127 a2         1 CLA     -0.105700
     61 C18        83.4195   59.3424   45.9093 a1         1 CLA      0.206800
     62 C19        82.0594   59.5002   45.1740 a3         1 CLA     -0.280100
     63 C20        83.2086   59.7785   47.3744 a3         1 CLA     -0.280100
     64 NC         73.9171   58.6870   41.1293 nx         1 CLA     -0.309200
     65 MG         75.3206   58.8465   39.4472 mg         1 CLA      0.895000
     66 HMD3       70.7257   55.5620   37.6404 dc         1 CLA      0.064300
     67 HMD2       71.8523   54.1697   37.3277 dc         1 CLA      0.064300
     68 HMD1       71.4619   54.6736   39.0549 dc         1 CLA      0.064300
     69 HMC3       73.8565   58.8205   45.2309 dc         1 CLA      0.052100
     70 HMC2       73.1815   60.3505   44.6700 dc         1 CLA      0.052100
     71 HMC1       72.0434   59.0840   45.1851 dc         1 CLA      0.052100
     72 HMB3       79.7860   62.5365   40.4236 dc         1 CLA      0.063600
     73 HMB2       79.6944   62.7762   42.2306 dc         1 CLA      0.063600
     74 HMB1       80.5412   61.3598   41.5051 dc         1 CLA      0.063600
     75 HMA3       81.0882   59.3138   37.8829 dc         1 CLA      0.058300
     76 HMA2       80.5392   57.6844   38.1017 dc         1 CLA      0.058300
     77 HMA1       81.0516   58.1773   36.5614 dc         1 CLA      0.058300
     78 HED3       77.4295   52.4863   37.5490 dc         1 CLA      0.079300
     79 HED2       76.8288   52.0046   36.0069 dc         1 CLA      0.079300
     80 HED1       78.2362   52.9808   36.0336 dc         1 CLA      0.079300
     81 HBC3       71.6589   55.0656   42.2729 dc         1 CLA      0.016300
     82 HBC2       72.0559   55.3761   43.9119 dc         1 CLA      0.016300
     83 HBC1       70.4055   55.2768   43.6860 dc         1 CLA      0.016300
     84 HBB2       78.6805   62.0115   45.6516 da         1 CLA      0.183000
     85 HBB1       79.5310   61.0197   44.3479 da         1 CLA      0.183000
     86 HBA2       79.1116   58.7305   33.0334 dc         1 CLA      0.029400
     87 HBA1       80.2732   58.8816   34.2706 dc         1 CLA      0.029400
     88 HAC2       70.8278   57.4596   44.0387 dc         1 CLA      0.029300
     89 HAC1       70.1318   57.2182   42.4292 dc         1 CLA      0.029300
     90 HAA2       77.4180   57.4586   34.2790 dc         1 CLA      0.028700
     91 HAA1       77.6709   59.1604   34.6777 dc         1 CLA      0.028700
     92 H203       82.8922   60.8037   47.5407 dc         1 CLA      0.065600
     93 H202       82.6101   58.9777   47.7773 dc         1 CLA      0.065600
     94 H201       84.1902   59.7485   47.7973 dc         1 CLA      0.065600
     95 H193       81.6134   60.4969   45.5771 dc         1 CLA      0.065600
     96 H192       82.1463   59.5112   44.0762 dc         1 CLA      0.065600
     97 H191       81.3328   58.7262   45.4595 dc         1 CLA      0.065600
     98 H172       83.3919   57.2001   45.9329 dc         1 CLA      0.027600
     99 H171       84.9969   57.9474   46.2881 dc         1 CLA      0.027600
    100 H162       84.8166   58.6828   43.5884 dc         1 CLA      0.002900
    101 H161       83.4653   57.5828   43.6492 dc         1 CLA      0.002900
    102 H152       85.1219   55.7561   44.4175 dc         1 CLA      0.029100
    103 H151       86.3748   56.7000   43.9500 dc         1 CLA      0.029100
    104 H143       83.0865   55.7659   42.1245 dc         1 CLA      0.063600
    105 H142       83.9898   54.6240   41.1278 dc         1 CLA      0.063600
    106 H141       83.9622   54.5513   42.9083 dc         1 CLA      0.063600
    107 H122       86.6883   57.3911   41.4026 dc         1 CLA      0.032500
    108 H121       85.0093   58.0354   41.4034 dc         1 CLA      0.032500
    109 H112       85.8239   57.6460   39.1523 dc         1 CLA      0.006600
    110 H111       84.5354   56.4849   39.5601 dc         1 CLA      0.006600
    111 H102       86.7054   54.9250   39.9208 dc         1 CLA      0.024100
    112 H101       87.6498   56.1196   39.5372 dc         1 CLA      0.024100
    113 HHD        71.5434   56.4785   40.3873 da         1 CLA      0.174300
    114 HHC        75.2088   60.5076   43.6610 da         1 CLA      0.136800
    115 HHB        79.5724   60.4279   39.1375 da         1 CLA      0.138300
    116 HBD        75.3175   56.5431   34.5455 dc         1 CLA      0.107700
    117 HAB        76.7021   62.2772   44.2945 da         1 CLA      0.155200
    118 H93        88.6929   55.2873   37.5294 dc         1 CLA      0.069500
    119 H92        88.2893   53.6735   38.2368 dc         1 CLA      0.069500
    120 H91        87.9393   54.1160   36.5260 dc         1 CLA      0.069500
    121 H8         86.4963   55.9659   37.1823 dc         1 CLA      0.029300
    122 H72        84.3608   54.9939   37.7392 dc         1 CLA      0.044400
    123 H71        85.1978   53.5022   38.3994 dc         1 CLA      0.044400
    124 H62        85.9298   52.8664   36.1953 dc         1 CLA      0.015600
    125 H61        85.3355   54.2595   35.4243 dc         1 CLA      0.015600
    126 H52        83.6471   52.1487   36.6615 dc         1 CLA      0.033200
    127 H51        83.8089   52.7203   34.8975 dc         1 CLA      0.033200
    128 H43        81.1244   52.4371   37.2735 dc         1 CLA      0.037000
    129 H42        81.9955   53.3292   38.3750 dc         1 CLA      0.037000
    130 H41        80.6556   54.1273   37.5031 dc         1 CLA      0.037000
    131 H3A        79.1470   59.8922   36.4813 dc         1 CLA      0.041100
    132 H2A        78.6580   56.8557   36.2688 dc         1 CLA      0.083100
    133 H2         83.0412   55.8532   36.0799 da         1 CLA      0.180900
    134 H18        84.1283   60.0723   45.4109 dc         1 CLA     -0.003900
    135 H13        86.2495   55.3570   42.3054 dc         1 CLA      0.019700
    136 H12        80.6749   54.5244   34.6587 dc         1 CLA      0.120400
    137 H11        81.9249   55.0415   33.5789 dc         1 CLA      0.120400
    138 C1         68.4378   61.5106   50.5712 Z1         2 LUT      0.509236
    139 C2         67.2338   61.0330   51.3433 Z2         2 LUT     -0.434695
    140 C3         66.1299   62.0202   51.7397 Z3         2 LUT      0.437453
    141 O3         66.2764   62.6464   53.0402 S1         2 LUT     -0.547129
    142 C4         66.1648   63.1364   50.7427 Z4         2 LUT     -0.468603
    143 C5         66.7136   62.8691   49.4180 Z5         2 LUT      0.279246
    144 C6         67.8137   62.1562   49.2586 Z6         2 LUT     -0.305473
    145 C7         68.1614   61.5050   47.9831 Z7         2 LUT      0.069402
    146 C8         68.9957   61.9912   47.0421 Z8         2 LUT     -0.191631
    147 C9         69.4691   61.5496   45.7148 Z9         2 LUT      0.196698
    148 C10        70.3597   62.3917   45.0853 Y1         2 LUT     -0.208611
    149 C11        71.1294   62.3243   43.8529 Y2         2 LUT      0.030784
    150 C12        72.1901   63.1890   43.6025 Y3         2 LUT     -0.220316
    151 C13        73.1388   63.1625   42.4389 Y4         2 LUT      0.215937
    152 C14        74.2019   64.0405   42.4415 Y5         2 LUT     -0.185793
    153 C15        75.3386   64.0818   41.4796 Y6         2 LUT     -0.057835
    154 C16        69.2498   60.2186   50.4608 Y7         2 LUT     -0.405615
    155 C17        69.2380   62.4341   51.4869 Y7         2 LUT     -0.405615
    156 C18        65.7775   63.1176   48.2466 Y9         2 LUT     -0.369639
    157 C19        68.9277   60.2912   45.1950 W1         2 LUT     -0.333362
    158 C20        72.6387   62.4563   41.1909 W2         2 LUT     -0.323439
    159 C21        86.8126   64.9715   35.6166 Z1         2 LUT      0.406104
    160 C22        87.5821   64.5043   34.4141 Z2         2 LUT     -0.404965
    161 C23        87.7595   65.6326   33.3486 Z3         2 LUT      0.391255
    162 O23        88.5700   65.0162   32.3068 S1         2 LUT     -0.528210
    163 C24        86.4351   66.3235   33.0411 W6         2 LUT     -0.258361
    164 C25        85.3705   66.3249   33.8964 Z5         2 LUT      0.133546
    165 C26        85.4555   65.5906   35.2306 W8         2 LUT     -0.147008
    166 C27        84.7926   66.2586   36.4323 Z7         2 LUT      0.023843
    167 C28        83.5477   65.9063   36.8778 Z8         2 LUT     -0.216987
    168 C29        82.7924   66.5033   37.9111 Z9         2 LUT      0.206524
    169 C30        81.7058   65.8004   38.4298 Y1         2 LUT     -0.215556
    170 C31        80.8710   66.0963   39.5341 Y2         2 LUT      0.025142
    171 C32        79.8106   65.3440   39.9628 Y3         2 LUT     -0.212209
    172 C33        78.8550   65.6107   41.0872 Y4         2 LUT      0.240937
    173 C34        77.6412   64.9004   40.9768 Y5         2 LUT     -0.218862
    174 C35        76.4281   64.8837   41.7362 Y6         2 LUT     -0.023547
    175 C36        87.9228   65.7719   36.4119 Y7         2 LUT     -0.393485
    176 C37        86.5826   63.6743   36.4573 Y7         2 LUT     -0.393485
    177 C38        84.0689   67.0723   33.4356 Y9         2 LUT     -0.387526
    178 C39        83.2603   67.8205   38.5098 W1         2 LUT     -0.322618
    179 C40        78.8569   66.8268   41.9586 W2         2 LUT     -0.358472
    180 H403       78.1268   66.9594   42.7383 R7         2 LUT      0.097720
    181 H402       79.8391   66.7781   42.4600 R7         2 LUT      0.097720
    182 H401       78.8605   67.7032   41.4285 R7         2 LUT      0.097720
    183 H393       82.4622   68.3969   38.9489 R4         2 LUT      0.082505
    184 H392       84.0719   67.6760   39.2342 R4         2 LUT      0.082505
    185 H391       83.5185   68.3777   37.5661 R4         2 LUT      0.082505
    186 H383       83.3389   66.4905   32.8077 R1         2 LUT      0.104030
    187 H382       83.5718   67.5035   34.3258 R1         2 LUT      0.104030
    188 H381       84.3522   67.9560   32.8856 R1         2 LUT      0.104030
    189 H373       86.3000   62.8305   35.7452 T4         2 LUT      0.089537
    190 H372       87.4323   63.3389   37.1131 T4         2 LUT      0.089537
    191 H371       85.7217   63.6671   37.1083 T4         2 LUT      0.089537
    192 H363       88.8279   65.2425   36.6903 T4         2 LUT      0.089537
    193 H362       88.2204   66.6972   36.0063 T4         2 LUT      0.089537
    194 H361       87.4215   65.9852   37.3081 T4         2 LUT      0.089537
    195 H222       88.5891   64.1384   34.6308 U2         2 LUT      0.127376
    196 H221       87.1193   63.6246   33.9260 U2         2 LUT      0.127376
    197 H203       71.6381   62.6299   40.8581 R7         2 LUT      0.087068
    198 H202       73.1821   62.6026   40.2798 R7         2 LUT      0.087068
    199 H201       72.6540   61.3680   41.2752 R7         2 LUT      0.087068
    200 H193       69.2855   59.4414   45.7195 R4         2 LUT      0.089716
    201 H192       67.8500   60.3606   45.2600 R4         2 LUT      0.089716
    202 H191       69.2215   60.0835   44.2101 R4         2 LUT      0.089716
    203 H183       66.2310   64.0486   47.8436 R1         2 LUT      0.094572
    204 H182       65.8628   62.4224   47.4123 R1         2 LUT      0.094572
    205 H181       64.7208   63.2452   48.5269 R1         2 LUT      0.094572
    206 H173       69.7195   61.8325   52.3250 T4         2 LUT      0.093752
    207 H172       69.9404   62.9760   50.9282 T4         2 LUT      0.093752
    208 H171       68.6500   63.1303   51.9745 T4         2 LUT      0.093752
    209 H163       68.8727   59.5997   49.6451 T4         2 LUT      0.093752
    210 H162       70.3224   60.3378   50.1925 T4         2 LUT      0.093752
    211 H161       69.1724   59.4560   51.2615 T4         2 LUT      0.093752
    212 HO3        66.1844   61.9687   53.7028 Q1         2 LUT      0.300121
    213 H8         69.2904   63.0345   47.3267 U7         2 LUT      0.080784
    214 H7         67.7112   60.5585   47.8789 U6         2 LUT      0.042190
    215 H42        65.0940   63.2886   50.5210 U5         2 LUT      0.145166
    216 H41        66.5138   64.0611   51.2238 U5         2 LUT      0.145166
    217 H35        76.4469   65.3772   42.6804 T3         2 LUT      0.077919
    218 H34        77.5542   64.2443   40.0951 T2         2 LUT      0.073626
    219 H32        79.5964   64.4625   39.3849 T1         2 LUT      0.092510
    220 H31        81.1949   66.9667   40.0262 U9         2 LUT      0.070048
    221 H30        81.3935   64.8506   37.9733 U8         2 LUT      0.085442
    222 H3         65.2129   61.5077   51.6608 U3         2 LUT     -0.031596
    223 H28        83.0661   65.0873   36.3302 U7         2 LUT      0.084728
    224 H27        85.3886   67.1242   36.8667 U6         2 LUT      0.087291
    225 H26        84.7463   64.8390   34.9937 Q6         2 LUT      0.075325
    226 H24        86.4347   66.7699   32.0122 Q5         2 LUT      0.094482
    227 H23        88.4463   66.3518   33.6940 U3         2 LUT     -0.024869
    228 H22        66.6303   60.3699   50.6317 U2         2 LUT      0.127376
    229 H21        67.4514   60.4588   52.2485 U2         2 LUT      0.127376
    230 H15        75.3096   63.4944   40.5449 T3         2 LUT      0.093200
    231 H14        74.2324   64.6540   43.3589 T2         2 LUT      0.068865
    232 H12        72.3367   63.9187   44.4028 T1         2 LUT      0.095507
    233 H11        70.8824   61.6225   43.0340 U9         2 LUT      0.068930
    234 H10        70.6510   63.2647   45.6149 U8         2 LUT      0.083911
    235 H1         88.0276   64.5669   31.6724 Q1         2 LUT      0.297311
@<TRIPOS>BOND
    1     6     1 1
    2     7     2 1
    3     8     3 1
    4     9     4 1
    5    11     4 1
    6    12     6 1
    7    13     9 1
    8    16     9 1
    9    25     5 1
   10    25    16 1
   11    26    10 1
   12    26    17 1
   13    27    18 1
   14    28    14 1
   15    28    19 1
   16    29    12 1
   17    30    13 1
   18    31    24 1
   19    32     1 1
   20    32    25 1
   21    33    21 1
   22    33    26 1
   23    34    22 1
   24    34    27 1
   25    35    23 1
   26    35    28 1
   27    36    12 1
   28    36    24 1
   29    37    13 1
   30    37    15 1
   31    38    31 1
   32    39    20 1
   33    39    32 1
   34    40     2 1
   35    40    33 1
   36    41     3 1
   37    41    34 1
   38    42     4 1
   39    42    35 1
   40    43    38 1
   41    44     5 1
   42    44    17 1
   43    44    39 1
   44    45    10 1
   45    45    18 1
   46    45    40 1
   47    46    19 1
   48    46    41 1
   49    47    14 1
   50    47    16 1
   51    47    42 1
   52    48    38 1
   53    49    48 1
   54    50    49 1
   55    51    50 1
   56    52    51 1
   57    53    51 1
   58    54    53 1
   59    55    54 1
   60    56    55 1
   61    57    56 1
   62    58    56 1
   63    59    58 1
   64    60    59 1
   65    61    60 1
   66    62    61 1
   67    63    61 1
   68    64    27 1
   69    64    46 1
   70    65     5 1
   71    65    10 1
   72    65    64 1
   73    65    14 1
   74    66    23 1
   75    67    23 1
   76    68    23 1
   77    69    22 1
   78    70    22 1
   79    71    22 1
   80    72    21 1
   81    73    21 1
   82    74    21 1
   83    75    20 1
   84    76    20 1
   85    77    20 1
   86    78    15 1
   87    79    15 1
   88    80    15 1
   89    81     8 1
   90    82     8 1
   91    83     8 1
   92    84     7 1
   93    85     7 1
   94    86     6 1
   95    87     6 1
   96    88     3 1
   97    89     3 1
   98    90     1 1
   99    91     1 1
  100    92    63 1
  101    93    63 1
  102    94    63 1
  103    95    62 1
  104    96    62 1
  105    97    62 1
  106    98    60 1
  107    99    60 1
  108   100    59 1
  109   101    59 1
  110   102    58 1
  111   103    58 1
  112   104    57 1
  113   105    57 1
  114   106    57 1
  115   107    55 1
  116   108    55 1
  117   109    54 1
  118   110    54 1
  119   111    53 1
  120   112    53 1
  121   113    19 1
  122   114    18 1
  123   115    17 1
  124   116     9 1
  125   117     2 1
  126   118    52 1
  127   119    52 1
  128   120    52 1
  129   121    51 1
  130   122    50 1
  131   123    50 1
  132   124    49 1
  133   125    49 1
  134   126    48 1
  135   127    48 1
  136   128    43 1
  137   129    43 1
  138   130    43 1
  139   131    39 1
  140   132    32 1
  141   133    31 1
  142   134    61 1
  143   135    56 1
  144   136    24 1
  145   137    24 1
  146   139   138 1
  147   140   139 1
  148   141   140 1
  149   142   140 1
  150   143   142 1
  151   144   138 1
  152   144   143 1
  153   145   144 1
  154   146   145 1
  155   147   146 1
  156   148   147 1
  157   149   148 1
  158   150   149 1
  159   151   150 1
  160   152   151 1
  161   153   152 1
  162   154   138 1
  163   155   138 1
  164   156   143 1
  165   157   147 1
  166   158   151 1
  167   160   159 1
  168   161   160 1
  169   162   161 1
  170   163   161 1
  171   164   163 1
  172   165   159 1
  173   165   164 1
  174   166   165 1
  175   167   166 1
  176   168   167 1
  177   169   168 1
  178   170   169 1
  179   171   170 1
  180   172   171 1
  181   173   172 1
  182   174   153 1
  183   174   173 1
  184   175   159 1
  185   176   159 1
  186   177   164 1
  187   178   168 1
  188   179   172 1
  189   180   179 1
  190   181   179 1
  191   182   179 1
  192   183   178 1
  193   184   178 1
  194   185   178 1
  195   186   177 1
  196   187   177 1
  197   188   177 1
  198   189   176 1
  199   190   176 1
  200   191   176 1
  201   192   175 1
  202   193   175 1
  203   194   175 1
  204   195   160 1
  205   196   160 1
  206   197   158 1
  207   198   158 1
  208   199   158 1
  209   200   157 1
  210   201   157 1
  211   202   157 1
  212   203   156 1
  213   204   156 1
  214   205   156 1
  215   206   155 1
  216   207   155 1
  217   208   155 1
  218   209   154 1
  219   210   154 1
  220   211   154 1
  221   212   141 1
  222   213   146 1
  223   214   145 1
  224   215   142 1
  225   216   142 1
  226   217   174 1
  227   218   173 1
  228   219   171 1
  229   220   170 1
  230   221   169 1
  231   222   140 1
  232   223   167 1
  233   224   166 1
  234   225   165 1
  235   226   163 1
  236   227   161 1
  237   228   139 1
  238   229   139 1
  239   230   153 1
  240   231   152 1
  241   232   150 1
  242   233   149 1
  243   234   148 1
  244   235   162 1
  245   65    153 1
  246   65    174 1
@<TRIPOS>SUBSTRUCTURE
      1 CLA               1 ****               0 ****  **** 
      2 LUT             138 ****               0 ****  **** 
