@<TRIPOS>MOLECULE
Cpptraj generated mol2 file.
  235   246     2     0     0
SMALL
USER_CHARGES


@<TRIPOS>ATOM
      1 CAA        77.4916   58.4892   34.7441 a2         1 CLA     -0.055900
      2 CAB        78.0168   62.9294   43.5521 c8         1 CLA     -0.148500
      3 CAC        70.8854   59.0486   43.3868 a2         1 CLA     -0.012600
      4 CAD        73.5204   56.2660   36.1068 ck         1 CLA      0.398800
      5 NA         76.7126   59.1641   38.2693 ns         1 CLA     -0.225500
      6 CBA        78.7815   58.6478   33.9012 a2         1 CLA     -0.135000
      7 CBB        77.7270   62.5459   44.8329 c0         1 CLA     -0.395200
      8 CBC        70.9628   57.5457   43.6181 a3         1 CLA     -0.037700
      9 CBD        74.9959   56.6687   35.8495 a1         1 CLA     -0.053900
     10 NB         76.6898   60.7932   40.7317 nm         1 CLA     -0.295700
     11 OBD        72.8862   55.6098   35.3190 o2         1 CLA     -0.494600
     12 CGA        79.6664   57.4249   33.6271 c4         1 CLA      0.827000
     13 CGD        75.8854   55.4146   35.7927 c4         1 CLA      0.655300
     14 ND         73.9491   58.3000   38.9550 nm         1 CLA     -0.291600
     15 CED        76.6512   53.4075   37.0450 a3         1 CLA      0.005400
     16 CHA        75.3419   57.6269   36.9408 cs         1 CLA     -0.123800
     17 CHB        78.4732   60.5121   39.1953 aa         1 CLA     -0.291900
     18 CHC        75.2945   61.2330   42.7449 aa         1 CLA     -0.090400
     19 CHD        72.0836   58.3931   40.4904 aa         1 CLA     -0.052000
     20 CMA        80.0806   58.7091   37.4649 a3         1 CLA     -0.230700
     21 CMB        79.8962   62.7205   40.9745 a3         1 CLA     -0.180800
     22 CMC        73.1232   60.9083   44.8437 a3         1 CLA     -0.134000
     23 CMD        70.7874   56.2758   38.4184 a3         1 CLA     -0.141100
     24 C1         80.6872   55.5150   34.5233 a2         1 CLA      0.023000
     25 C1A        76.5079   58.3242   37.1344 ac         1 CLA     -0.015100
     26 C1B        77.9923   61.1193   40.3311 cr         1 CLA      0.054700
     27 C1C        74.1839   60.4480   42.4913 cn         1 CLA     -0.005600
     28 C1D        72.6737   57.9462   39.2806 ap         1 CLA     -0.047300
     29 O1A        80.0217   57.0754   32.5332 o2         1 CLA     -0.610800
     30 O1D        76.5911   55.0816   34.8823 o2         1 CLA     -0.558200
     31 C2         80.7079   54.6230   35.7239 c8         1 CLA     -0.325100
     32 C2A        77.7886   58.3060   36.2958 a1         1 CLA      0.098600
     33 C2B        78.5150   62.0829   41.1545 cb         1 CLA      0.088500
     34 C2C        73.0685   60.4147   43.3805 cb         1 CLA      0.053700
     35 C2D        72.1494   57.0076   38.3038 cb         1 CLA      0.058900
     36 O2A        79.8610   56.6558   34.7788 o1         1 CLA     -0.437200
     37 O2D        75.7229   54.6087   36.9001 o1         1 CLA     -0.357600
     38 C3         81.7965   54.2556   36.4229 c5         1 CLA      0.031200
     39 C3A        78.7369   59.2709   37.0279 a1         1 CLA      0.166800
     40 C3B        77.7217   62.2110   42.2729 cb         1 CLA      0.035000
     41 C3C        72.1495   59.5476   42.7553 cb         1 CLA     -0.089900
     42 C3D        73.1534   56.9216   37.4035 cb         1 CLA     -0.035900
     43 C4         82.6808   53.1292   36.2203 a3         1 CLA     -0.053300
     44 C4A        77.9398   59.7120   38.2519 ac         1 CLA      0.001800
     45 C4B        76.5080   61.3421   42.0042 cn         1 CLA     -0.020900
     46 C4C        72.6336   59.2318   41.4669 cr         1 CLA     -0.044400
     47 C4D        74.2685   57.6773   37.7706 c6         1 CLA     -0.046000
     48 C5         82.0726   55.1049   37.6183 a2         1 CLA     -0.070400
     49 C6         83.1409   56.2604   37.3667 a2         1 CLA      0.043900
     50 C7         83.5484   56.8885   38.7680 a2         1 CLA     -0.150000
     51 C8         84.0685   58.3928   38.8093 a1         1 CLA      0.064200
     52 C9         85.3762   58.7242   38.0469 a3         1 CLA     -0.259300
     53 C10        84.0560   59.0373   40.2482 a2         1 CLA     -0.071900
     54 C11        82.7117   58.8118   41.0549 a2         1 CLA      0.014500
     55 C12        82.5228   59.7899   42.2136 a2         1 CLA     -0.112100
     56 C13        83.4942   59.5787   43.4056 a1         1 CLA      0.089200
     57 C14        83.1853   58.2821   44.1679 a3         1 CLA     -0.239100
     58 C15        83.6752   60.8286   44.3251 a2         1 CLA     -0.102200
     59 C16        82.4152   61.3565   45.0346 a2         1 CLA      0.023900
     60 C17        82.5870   62.7914   45.5400 a2         1 CLA     -0.105700
     61 C18        82.3942   63.0260   46.9918 a1         1 CLA      0.206800
     62 C19        82.9451   64.3793   47.3433 a3         1 CLA     -0.280100
     63 C20        80.9186   62.8974   47.3266 a3         1 CLA     -0.280100
     64 NC         73.9253   59.8176   41.3381 nx         1 CLA     -0.309200
     65 MG         75.2509   59.6007   39.6962 mg         1 CLA      0.895000
     66 HMD3       70.7113   55.4404   37.8237 dc         1 CLA      0.064300
     67 HMD2       70.4854   56.0092   39.4739 dc         1 CLA      0.064300
     68 HMD1       69.9919   57.0552   38.2459 dc         1 CLA      0.064300
     69 HMC3       72.7345   60.1268   45.4531 dc         1 CLA      0.052100
     70 HMC2       74.0718   61.3399   45.1653 dc         1 CLA      0.052100
     71 HMC1       72.4862   61.7666   44.9056 dc         1 CLA      0.052100
     72 HMB3       80.5103   62.4353   41.8064 dc         1 CLA      0.063600
     73 HMB2       80.3940   62.2737   40.1425 dc         1 CLA      0.063600
     74 HMB1       79.8117   63.7739   40.8309 dc         1 CLA      0.063600
     75 HMA3       79.8588   57.8318   38.0321 dc         1 CLA      0.058300
     76 HMA2       80.5838   58.3292   36.5919 dc         1 CLA      0.058300
     77 HMA1       80.7076   59.3319   38.1325 dc         1 CLA      0.058300
     78 HED3       77.6934   53.6439   36.9932 dc         1 CLA      0.079300
     79 HED2       76.4179   53.1316   38.1135 dc         1 CLA      0.079300
     80 HED1       76.3135   52.5658   36.3899 dc         1 CLA      0.079300
     81 HBC3       70.0346   57.2673   43.9544 dc         1 CLA      0.016300
     82 HBC2       71.2065   56.9007   42.7424 dc         1 CLA      0.016300
     83 HBC1       71.6923   57.3159   44.3304 dc         1 CLA      0.016300
     84 HBB2       78.0551   63.0348   45.7234 da         1 CLA      0.183000
     85 HBB1       77.2096   61.5774   45.0154 da         1 CLA      0.183000
     86 HBA2       78.6249   59.0046   32.8760 dc         1 CLA      0.029400
     87 HBA1       79.5191   59.3625   34.3524 dc         1 CLA      0.029400
     88 HAC2       70.6726   59.5233   44.3724 dc         1 CLA      0.029300
     89 HAC1       70.1306   59.3282   42.7128 dc         1 CLA      0.029300
     90 HAA2       76.9843   57.7070   34.2376 dc         1 CLA      0.028700
     91 HAA1       76.8337   59.4131   34.6391 dc         1 CLA      0.028700
     92 H203       80.3164   63.4698   46.6501 dc         1 CLA      0.065600
     93 H202       80.5362   61.8965   47.4410 dc         1 CLA      0.065600
     94 H201       80.7693   63.3227   48.3362 dc         1 CLA      0.065600
     95 H193       82.5504   65.1718   46.6839 dc         1 CLA      0.065600
     96 H192       82.6767   64.4956   48.3821 dc         1 CLA      0.065600
     97 H191       83.9487   64.5420   47.1633 dc         1 CLA      0.065600
     98 H172       83.5599   63.1021   45.2019 dc         1 CLA      0.027600
     99 H171       81.9122   63.4089   44.9110 dc         1 CLA      0.027600
    100 H162       81.6033   61.2131   44.4041 dc         1 CLA      0.002900
    101 H161       82.2324   60.7382   45.9720 dc         1 CLA      0.002900
    102 H152       84.2918   60.4017   45.1741 dc         1 CLA      0.029100
    103 H151       84.1657   61.6123   43.7455 dc         1 CLA      0.029100
    104 H143       83.1731   57.4272   43.4945 dc         1 CLA      0.063600
    105 H142       83.9429   58.0676   44.9097 dc         1 CLA      0.063600
    106 H141       82.2311   58.2528   44.6509 dc         1 CLA      0.063600
    107 H122       82.5967   60.8152   41.8421 dc         1 CLA      0.032500
    108 H121       81.5428   59.7461   42.6392 dc         1 CLA      0.032500
    109 H112       81.9360   59.1665   40.3915 dc         1 CLA      0.006600
    110 H111       82.4861   57.8475   41.3710 dc         1 CLA      0.006600
    111 H102       84.8513   58.5787   40.8087 dc         1 CLA      0.024100
    112 H101       84.2504   60.1034   40.1362 dc         1 CLA      0.024100
    113 HHD        71.0372   58.2256   40.7117 da         1 CLA      0.174300
    114 HHC        75.3665   61.8689   43.6353 da         1 CLA      0.136800
    115 HHB        79.4705   60.7317   38.8344 da         1 CLA      0.138300
    116 HBD        75.1581   57.0745   34.8658 dc         1 CLA      0.107700
    117 HAB        78.6522   63.7586   43.3904 da         1 CLA      0.155200
    118 H93        86.1294   58.1517   38.5463 dc         1 CLA      0.069500
    119 H92        85.2466   58.3535   37.0404 dc         1 CLA      0.069500
    120 H91        85.6532   59.7916   37.9598 dc         1 CLA      0.069500
    121 H8         83.3851   59.0766   38.2798 dc         1 CLA      0.029300
    122 H72        82.7354   56.8197   39.5426 dc         1 CLA      0.044400
    123 H71        84.3322   56.2797   39.2544 dc         1 CLA      0.044400
    124 H62        84.0104   55.9396   36.8583 dc         1 CLA      0.015600
    125 H61        82.8100   56.9730   36.6289 dc         1 CLA      0.015600
    126 H52        81.1074   55.5951   37.8319 dc         1 CLA      0.033200
    127 H51        82.3828   54.4830   38.4510 dc         1 CLA      0.033200
    128 H43        82.4401   52.1744   36.7304 dc         1 CLA      0.037000
    129 H42        82.5461   52.9421   35.1929 dc         1 CLA      0.037000
    130 H41        83.7566   53.4001   36.3746 dc         1 CLA      0.037000
    131 H3A        78.9023   60.1821   36.4606 dc         1 CLA      0.041100
    132 H2A        78.1297   57.2254   36.3987 dc         1 CLA      0.083100
    133 H2         79.6730   54.2276   35.9846 da         1 CLA      0.180900
    134 H18        82.9819   62.3054   47.5601 dc         1 CLA     -0.003900
    135 H13        84.4929   59.3667   43.0020 dc         1 CLA      0.019700
    136 H12        80.2774   54.8937   33.7602 dc         1 CLA      0.120400
    137 H11        81.7510   55.7713   34.3270 dc         1 CLA      0.120400
    138 C1         66.9528   62.9717   51.0829 Z1         2 LUT      0.509236
    139 C2         66.8683   64.1983   51.9908 Z2         2 LUT     -0.434695
    140 C3         65.5358   64.9217   51.9090 Z3         2 LUT      0.437453
    141 O3         65.6305   66.2416   52.3510 S1         2 LUT     -0.547129
    142 C4         64.9970   64.9164   50.4324 Z4         2 LUT     -0.468603
    143 C5         65.8135   64.2608   49.3372 Z5         2 LUT      0.279246
    144 C6         66.7188   63.3168   49.6238 Z6         2 LUT     -0.305473
    145 C7         67.6875   62.7507   48.6215 Z7         2 LUT      0.069402
    146 C8         68.2517   63.4005   47.5447 Z8         2 LUT     -0.191631
    147 C9         68.7738   62.8649   46.3370 Z9         2 LUT      0.196698
    148 C10        69.5987   63.6968   45.6341 Y1         2 LUT     -0.208611
    149 C11        70.3640   63.4828   44.4413 Y2         2 LUT      0.030784
    150 C12        71.3189   64.4921   44.0099 Y3         2 LUT     -0.220316
    151 C13        72.2453   64.3593   42.8827 Y4         2 LUT      0.215937
    152 C14        73.4807   64.9708   42.8955 Y5         2 LUT     -0.185793
    153 C15        74.5349   64.7849   41.9908 Y6         2 LUT     -0.057835
    154 C16        65.7829   62.0457   51.5348 Y7         2 LUT     -0.405615
    155 C17        68.2616   62.1864   51.3045 Y7         2 LUT     -0.405615
    156 C18        65.5332   64.8888   47.9401 Y9         2 LUT     -0.369639
    157 C19        68.5585   61.3756   46.1029 W1         2 LUT     -0.333362
    158 C20        71.7581   63.5969   41.6769 W2         2 LUT     -0.323439
    159 C21        86.3319   66.2496   36.0469 Z1         2 LUT      0.406104
    160 C22        87.0281   65.6519   34.8807 Z2         2 LUT     -0.404965
    161 C23        87.1746   66.4729   33.5915 Z3         2 LUT      0.391255
    162 O23        87.7136   65.6356   32.5119 S1         2 LUT     -0.528210
    163 C24        85.9583   67.3524   33.4521 W6         2 LUT     -0.258361
    164 C25        84.9093   67.3466   34.2221 Z5         2 LUT      0.133546
    165 C26        84.8114   66.5501   35.5480 W8         2 LUT     -0.147008
    166 C27        83.9686   67.2656   36.6020 Z7         2 LUT      0.023843
    167 C28        82.7862   66.7391   36.9738 Z8         2 LUT     -0.216987
    168 C29        81.9554   67.2174   38.1327 Z9         2 LUT      0.206524
    169 C30        80.8382   66.3954   38.4337 Y1         2 LUT     -0.215556
    170 C31        80.0099   66.6285   39.5769 Y2         2 LUT      0.025142
    171 C32        78.8904   65.9382   39.9496 Y3         2 LUT     -0.212209
    172 C33        78.0535   66.0687   41.2223 Y4         2 LUT      0.240937
    173 C34        76.8839   65.3970   41.2904 Y5         2 LUT     -0.218862
    174 C35        75.8155   65.3424   42.3009 Y6         2 LUT     -0.023547
    175 C36        87.1741   67.5805   36.3915 Y7         2 LUT     -0.393485
    176 C37        86.5718   65.3096   37.2077 Y7         2 LUT     -0.393485
    177 C38        83.6542   67.8979   33.6512 Y9         2 LUT     -0.387526
    178 C39        82.4102   68.4922   38.7999 W1         2 LUT     -0.322618
    179 C40        78.6968   66.9463   42.2926 W2         2 LUT     -0.358472
    180 H403       79.5442   66.4473   42.7502 R7         2 LUT      0.097720
    181 H402       78.8813   67.9158   41.9229 R7         2 LUT      0.097720
    182 H401       77.9597   67.0043   43.1094 R7         2 LUT      0.097720
    183 H393       83.2663   68.3104   39.4768 R4         2 LUT      0.082505
    184 H392       82.7018   69.2947   38.0685 R4         2 LUT      0.082505
    185 H391       81.5857   68.9192   39.4206 R4         2 LUT      0.082505
    186 H383       83.5446   67.9763   32.5535 R1         2 LUT      0.104030
    187 H382       82.6606   67.5261   33.9946 R1         2 LUT      0.104030
    188 H381       83.6057   68.8869   34.1176 R1         2 LUT      0.104030
    189 H373       85.8737   65.6554   38.0137 T4         2 LUT      0.089537
    190 H372       86.2756   64.3041   36.9831 T4         2 LUT      0.089537
    191 H371       87.7117   65.3469   37.4576 T4         2 LUT      0.089537
    192 H363       87.1790   68.2934   35.5457 T4         2 LUT      0.089537
    193 H362       86.7047   68.0654   37.2706 T4         2 LUT      0.089537
    194 H361       88.2082   67.4251   36.5898 T4         2 LUT      0.089537
    195 H222       88.0704   65.2908   34.9785 U2         2 LUT      0.127376
    196 H221       86.3961   64.7881   34.5889 U2         2 LUT      0.127376
    197 H203       70.6894   63.6355   41.4889 R7         2 LUT      0.087068
    198 H202       72.2058   64.0053   40.7594 R7         2 LUT      0.087068
    199 H201       71.8809   62.4989   41.6728 R7         2 LUT      0.087068
    200 H193       68.9617   60.7339   46.8315 R4         2 LUT      0.089716
    201 H192       67.4349   61.1991   45.8904 R4         2 LUT      0.089716
    202 H191       69.0731   61.1841   45.1796 R4         2 LUT      0.089716
    203 H183       64.5660   65.3363   47.9830 R1         2 LUT      0.094572
    204 H182       66.2407   65.7432   47.8578 R1         2 LUT      0.094572
    205 H181       65.6723   64.1885   47.0733 R1         2 LUT      0.094572
    206 H173       68.4241   61.8930   52.3398 T4         2 LUT      0.093752
    207 H172       68.3280   61.2899   50.7557 T4         2 LUT      0.093752
    208 H171       69.1450   62.8167   51.0442 T4         2 LUT      0.093752
    209 H163       65.9861   61.0277   51.1724 T4         2 LUT      0.093752
    210 H162       65.5925   62.0044   52.6384 T4         2 LUT      0.093752
    211 H161       64.8299   62.3317   51.0596 T4         2 LUT      0.093752
    212 HO3        64.7929   66.5229   52.7850 Q1         2 LUT      0.300121
    213 H8         68.3593   64.5191   47.6202 U7         2 LUT      0.080784
    214 H7         67.7133   61.6790   48.6528 U6         2 LUT      0.042190
    215 H42        64.0158   64.4386   50.3878 U5         2 LUT      0.145166
    216 H41        64.8895   65.9496   50.0014 U5         2 LUT      0.145166
    217 H35        75.9875   65.8622   43.1699 T3         2 LUT      0.077919
    218 H34        76.6762   64.8506   40.4070 T2         2 LUT      0.073626
    219 H32        78.4859   65.1218   39.2422 T1         2 LUT      0.092510
    220 H31        80.2298   67.3917   40.3250 U9         2 LUT      0.070048
    221 H30        80.6274   65.5302   37.8393 U8         2 LUT      0.085442
    222 H3         64.8137   64.4772   52.6182 U3         2 LUT     -0.031596
    223 H28        82.5037   65.7213   36.6465 U7         2 LUT      0.084728
    224 H27        84.3962   68.1557   37.0848 U6         2 LUT      0.087291
    225 H26        84.3395   65.5670   35.4566 Q6         2 LUT      0.075325
    226 H24        85.9110   67.6950   32.3842 Q5         2 LUT      0.094482
    227 H23        87.9851   67.1943   33.8662 U3         2 LUT     -0.024869
    228 H22        67.0066   63.9166   53.0622 U2         2 LUT      0.127376
    229 H21        67.7387   64.9134   51.7780 U2         2 LUT      0.127376
    230 H15        74.3727   64.2279   41.0623 T3         2 LUT      0.093200
    231 H14        73.7481   65.5806   43.8415 T2         2 LUT      0.068865
    232 H12        71.5881   65.2477   44.7339 T1         2 LUT      0.095507
    233 H11        70.3561   62.4902   43.8772 U9         2 LUT      0.068930
    234 H10        69.6135   64.6813   46.0561 U8         2 LUT      0.083911
    235 H1         87.0533   65.5062   31.8355 Q1         2 LUT      0.297311
@<TRIPOS>BOND
    1     6     1 1
    2     7     2 1
    3     8     3 1
    4     9     4 1
    5    11     4 1
    6    12     6 1
    7    13     9 1
    8    16     9 1
    9    25     5 1
   10    25    16 1
   11    26    10 1
   12    26    17 1
   13    27    18 1
   14    28    14 1
   15    28    19 1
   16    29    12 1
   17    30    13 1
   18    31    24 1
   19    32     1 1
   20    32    25 1
   21    33    21 1
   22    33    26 1
   23    34    22 1
   24    34    27 1
   25    35    23 1
   26    35    28 1
   27    36    12 1
   28    36    24 1
   29    37    13 1
   30    37    15 1
   31    38    31 1
   32    39    20 1
   33    39    32 1
   34    40     2 1
   35    40    33 1
   36    41     3 1
   37    41    34 1
   38    42     4 1
   39    42    35 1
   40    43    38 1
   41    44     5 1
   42    44    17 1
   43    44    39 1
   44    45    10 1
   45    45    18 1
   46    45    40 1
   47    46    19 1
   48    46    41 1
   49    47    14 1
   50    47    16 1
   51    47    42 1
   52    48    38 1
   53    49    48 1
   54    50    49 1
   55    51    50 1
   56    52    51 1
   57    53    51 1
   58    54    53 1
   59    55    54 1
   60    56    55 1
   61    57    56 1
   62    58    56 1
   63    59    58 1
   64    60    59 1
   65    61    60 1
   66    62    61 1
   67    63    61 1
   68    64    27 1
   69    64    46 1
   70    65     5 1
   71    65    10 1
   72    65    64 1
   73    65    14 1
   74    66    23 1
   75    67    23 1
   76    68    23 1
   77    69    22 1
   78    70    22 1
   79    71    22 1
   80    72    21 1
   81    73    21 1
   82    74    21 1
   83    75    20 1
   84    76    20 1
   85    77    20 1
   86    78    15 1
   87    79    15 1
   88    80    15 1
   89    81     8 1
   90    82     8 1
   91    83     8 1
   92    84     7 1
   93    85     7 1
   94    86     6 1
   95    87     6 1
   96    88     3 1
   97    89     3 1
   98    90     1 1
   99    91     1 1
  100    92    63 1
  101    93    63 1
  102    94    63 1
  103    95    62 1
  104    96    62 1
  105    97    62 1
  106    98    60 1
  107    99    60 1
  108   100    59 1
  109   101    59 1
  110   102    58 1
  111   103    58 1
  112   104    57 1
  113   105    57 1
  114   106    57 1
  115   107    55 1
  116   108    55 1
  117   109    54 1
  118   110    54 1
  119   111    53 1
  120   112    53 1
  121   113    19 1
  122   114    18 1
  123   115    17 1
  124   116     9 1
  125   117     2 1
  126   118    52 1
  127   119    52 1
  128   120    52 1
  129   121    51 1
  130   122    50 1
  131   123    50 1
  132   124    49 1
  133   125    49 1
  134   126    48 1
  135   127    48 1
  136   128    43 1
  137   129    43 1
  138   130    43 1
  139   131    39 1
  140   132    32 1
  141   133    31 1
  142   134    61 1
  143   135    56 1
  144   136    24 1
  145   137    24 1
  146   139   138 1
  147   140   139 1
  148   141   140 1
  149   142   140 1
  150   143   142 1
  151   144   138 1
  152   144   143 1
  153   145   144 1
  154   146   145 1
  155   147   146 1
  156   148   147 1
  157   149   148 1
  158   150   149 1
  159   151   150 1
  160   152   151 1
  161   153   152 1
  162   154   138 1
  163   155   138 1
  164   156   143 1
  165   157   147 1
  166   158   151 1
  167   160   159 1
  168   161   160 1
  169   162   161 1
  170   163   161 1
  171   164   163 1
  172   165   159 1
  173   165   164 1
  174   166   165 1
  175   167   166 1
  176   168   167 1
  177   169   168 1
  178   170   169 1
  179   171   170 1
  180   172   171 1
  181   173   172 1
  182   174   153 1
  183   174   173 1
  184   175   159 1
  185   176   159 1
  186   177   164 1
  187   178   168 1
  188   179   172 1
  189   180   179 1
  190   181   179 1
  191   182   179 1
  192   183   178 1
  193   184   178 1
  194   185   178 1
  195   186   177 1
  196   187   177 1
  197   188   177 1
  198   189   176 1
  199   190   176 1
  200   191   176 1
  201   192   175 1
  202   193   175 1
  203   194   175 1
  204   195   160 1
  205   196   160 1
  206   197   158 1
  207   198   158 1
  208   199   158 1
  209   200   157 1
  210   201   157 1
  211   202   157 1
  212   203   156 1
  213   204   156 1
  214   205   156 1
  215   206   155 1
  216   207   155 1
  217   208   155 1
  218   209   154 1
  219   210   154 1
  220   211   154 1
  221   212   141 1
  222   213   146 1
  223   214   145 1
  224   215   142 1
  225   216   142 1
  226   217   174 1
  227   218   173 1
  228   219   171 1
  229   220   170 1
  230   221   169 1
  231   222   140 1
  232   223   167 1
  233   224   166 1
  234   225   165 1
  235   226   163 1
  236   227   161 1
  237   228   139 1
  238   229   139 1
  239   230   153 1
  240   231   152 1
  241   232   150 1
  242   233   149 1
  243   234   148 1
  244   235   162 1
  245   65    153 1
  246   65    174 1
@<TRIPOS>SUBSTRUCTURE
      1 CLA               1 ****               0 ****  **** 
      2 LUT             138 ****               0 ****  **** 
