@<TRIPOS>MOLECULE
Cpptraj generated mol2 file.
  235   246     2     0     0
SMALL
USER_CHARGES


@<TRIPOS>ATOM
      1 CAA        78.8099   57.9472   35.4864 a2         1 CLA     -0.055900
      2 CAB        77.9780   62.1588   44.0875 c8         1 CLA     -0.148500
      3 CAC        71.5079   57.1633   43.5779 a2         1 CLA     -0.012600
      4 CAD        74.7945   55.2586   36.3386 ck         1 CLA      0.398800
      5 NA         77.6809   58.1678   38.9053 ns         1 CLA     -0.225500
      6 CBA        80.1642   58.1975   34.6892 a2         1 CLA     -0.135000
      7 CBB        78.9264   62.1540   45.0302 c0         1 CLA     -0.395200
      8 CBC        71.7149   55.5927   43.8379 a3         1 CLA     -0.037700
      9 CBD        76.2178   55.8312   36.1354 a1         1 CLA     -0.053900
     10 NB         77.2328   59.8173   41.2965 nm         1 CLA     -0.295700
     11 OBD        74.2223   54.5202   35.5394 o2         1 CLA     -0.494600
     12 CGA        81.0869   57.0768   34.3768 c4         1 CLA      0.827000
     13 CGD        77.1658   54.6194   35.9146 c4         1 CLA      0.655300
     14 ND         74.8980   57.1739   39.2505 nm         1 CLA     -0.291600
     15 CED        77.5945   52.3865   36.7277 a3         1 CLA      0.005400
     16 CHA        76.4661   56.6320   37.3747 cs         1 CLA     -0.123800
     17 CHB        79.1201   59.9036   39.7616 aa         1 CLA     -0.291900
     18 CHC        75.7397   60.1127   43.2240 aa         1 CLA     -0.090400
     19 CHD        72.9795   56.9049   40.8042 aa         1 CLA     -0.052000
     20 CMA        80.8962   57.5077   38.8039 a3         1 CLA     -0.230700
     21 CMB        80.2209   62.0628   41.7855 a3         1 CLA     -0.180800
     22 CMC        73.3591   59.3830   45.1554 a3         1 CLA     -0.134000
     23 CMD        71.8452   55.0609   38.3689 a3         1 CLA     -0.141100
     24 C1         82.0969   55.1044   35.3353 a2         1 CLA      0.023000
     25 C1A        77.5547   57.4344   37.7215 ac         1 CLA     -0.015100
     26 C1B        78.4073   60.3795   40.8744 cr         1 CLA      0.054700
     27 C1C        74.6733   59.2078   42.9107 cn         1 CLA     -0.005600
     28 C1D        73.6023   56.6590   39.5614 ap         1 CLA     -0.047300
     29 O1A        81.2534   56.5658   33.2734 o2         1 CLA     -0.610800
     30 O1D        78.1537   54.5414   35.1424 o2         1 CLA     -0.558200
     31 C2         81.8280   54.3015   36.5924 c8         1 CLA     -0.325100
     32 C2A        78.8861   57.4218   36.9746 a1         1 CLA      0.098600
     33 C2B        78.9178   61.2788   41.9161 cb         1 CLA      0.088500
     34 C2C        73.5309   58.8519   43.7818 cb         1 CLA      0.053700
     35 C2D        73.1321   55.8342   38.4024 cb         1 CLA      0.058900
     36 O2A        81.4697   56.4122   35.5617 o1         1 CLA     -0.437200
     37 O2D        76.7748   53.5902   36.7495 o1         1 CLA     -0.357600
     38 C3         82.6659   53.5206   37.3581 c5         1 CLA      0.031200
     39 C3A        79.8433   58.2582   37.9447 a1         1 CLA      0.166800
     40 C3B        77.9346   61.3018   42.9032 cb         1 CLA      0.035000
     41 C3C        72.7903   57.8844   43.0983 cb         1 CLA     -0.089900
     42 C3D        74.3348   55.8306   37.5927 cb         1 CLA     -0.035900
     43 C4         82.7058   52.0550   37.1318 a3         1 CLA     -0.053300
     44 C4A        78.8099   58.8237   38.9064 ac         1 CLA      0.001800
     45 C4B        76.8813   60.3925   42.4857 cn         1 CLA     -0.020900
     46 C4C        73.4676   57.7556   41.8373 cr         1 CLA     -0.044400
     47 C4D        75.2752   56.6183   38.1792 c6         1 CLA     -0.046000
     48 C5         83.4189   54.0443   38.5418 a2         1 CLA     -0.070400
     49 C6         84.5992   54.9805   38.3219 a2         1 CLA      0.043900
     50 C7         85.0770   55.5174   39.6824 a2         1 CLA     -0.150000
     51 C8         86.0656   56.7137   39.6887 a1         1 CLA      0.064200
     52 C9         87.5027   56.2433   39.1541 a3         1 CLA     -0.259300
     53 C10        86.2472   57.3801   41.0344 a2         1 CLA     -0.071900
     54 C11        84.9603   58.0427   41.6497 a2         1 CLA      0.014500
     55 C12        85.2402   58.9554   42.8227 a2         1 CLA     -0.112100
     56 C13        86.0455   58.4553   44.0527 a1         1 CLA      0.089200
     57 C14        85.4786   57.1513   44.6843 a3         1 CLA     -0.239100
     58 C15        86.2032   59.5117   45.1838 a2         1 CLA     -0.102200
     59 C16        84.9813   59.9907   46.0507 a2         1 CLA      0.023900
     60 C17        85.3504   61.2709   46.8808 a2         1 CLA     -0.105700
     61 C18        84.2213   62.0613   47.6322 a1         1 CLA      0.206800
     62 C19        83.1995   61.2732   48.4746 a3         1 CLA     -0.280100
     63 C20        84.7847   63.2938   48.4856 a3         1 CLA     -0.280100
     64 NC         74.6061   58.5062   41.7837 nx         1 CLA     -0.309200
     65 MG         76.0445   58.5472   40.2601 mg         1 CLA      0.895000
     66 HMD3       71.1560   55.7931   37.9292 dc         1 CLA      0.064300
     67 HMD2       71.9929   54.1887   37.7493 dc         1 CLA      0.064300
     68 HMD1       71.4938   54.8131   39.3765 dc         1 CLA      0.064300
     69 HMC3       72.3177   59.5381   45.3387 dc         1 CLA      0.052100
     70 HMC2       73.7153   58.6742   45.8948 dc         1 CLA      0.052100
     71 HMC1       73.9019   60.2761   45.3388 dc         1 CLA      0.052100
     72 HMB3       80.2544   62.5022   40.7449 dc         1 CLA      0.063600
     73 HMB2       80.2280   62.8394   42.4588 dc         1 CLA      0.063600
     74 HMB1       81.1049   61.4771   41.9524 dc         1 CLA      0.063600
     75 HMA3       81.0656   58.2724   39.5905 dc         1 CLA      0.058300
     76 HMA2       80.6268   56.7210   39.4126 dc         1 CLA      0.058300
     77 HMA1       81.8297   57.2691   38.2404 dc         1 CLA      0.058300
     78 HED3       77.2091   51.6233   37.4094 dc         1 CLA      0.079300
     79 HED2       77.3425   51.8737   35.7674 dc         1 CLA      0.079300
     80 HED1       78.6662   52.5715   36.8884 dc         1 CLA      0.079300
     81 HBC3       71.9347   55.2141   42.8834 dc         1 CLA      0.016300
     82 HBC2       72.4828   55.4485   44.5696 dc         1 CLA      0.016300
     83 HBC1       70.7673   55.1401   44.1883 dc         1 CLA      0.016300
     84 HBB2       78.9170   62.8813   45.8565 da         1 CLA      0.183000
     85 HBB1       79.8221   61.5468   44.9800 da         1 CLA      0.183000
     86 HBA2       79.7556   58.6731   33.7813 dc         1 CLA      0.029400
     87 HBA1       80.6212   59.0295   35.2213 dc         1 CLA      0.029400
     88 HAC2       71.1208   57.6131   44.4980 dc         1 CLA      0.029300
     89 HAC1       70.7310   57.0401   42.8743 dc         1 CLA      0.029300
     90 HAA2       78.2626   57.2123   34.9658 dc         1 CLA      0.028700
     91 HAA1       78.0236   58.6865   35.4484 dc         1 CLA      0.028700
     92 H203       83.9519   63.9249   48.8242 dc         1 CLA      0.065600
     93 H202       85.2333   62.8015   49.3874 dc         1 CLA      0.065600
     94 H201       85.5343   63.8455   47.8878 dc         1 CLA      0.065600
     95 H193       82.9083   60.3285   48.1049 dc         1 CLA      0.065600
     96 H192       83.6333   61.2389   49.4893 dc         1 CLA      0.065600
     97 H191       82.3186   61.9288   48.5424 dc         1 CLA      0.065600
     98 H172       85.9828   60.9655   47.7168 dc         1 CLA      0.027600
     99 H171       85.9026   61.9675   46.2024 dc         1 CLA      0.027600
    100 H162       84.0981   60.2092   45.3956 dc         1 CLA      0.002900
    101 H161       84.6033   59.1864   46.7420 dc         1 CLA      0.002900
    102 H152       87.0083   59.2077   45.7845 dc         1 CLA      0.029100
    103 H151       86.6522   60.3605   44.5984 dc         1 CLA      0.029100
    104 H143       86.0924   56.8057   45.5547 dc         1 CLA      0.063600
    105 H142       84.4350   57.3905   44.8473 dc         1 CLA      0.063600
    106 H141       85.5415   56.2950   44.0262 dc         1 CLA      0.063600
    107 H122       85.8968   59.7077   42.4758 dc         1 CLA      0.032500
    108 H121       84.3922   59.5966   43.1051 dc         1 CLA      0.032500
    109 H112       84.5094   58.7429   40.8728 dc         1 CLA      0.006600
    110 H111       84.2970   57.3143   41.9810 dc         1 CLA      0.006600
    111 H102       86.5213   56.5461   41.6946 dc         1 CLA      0.024100
    112 H101       87.0205   58.1332   41.0891 dc         1 CLA      0.024100
    113 HHD        71.9690   56.4975   40.9977 da         1 CLA      0.174300
    114 HHC        75.6152   60.7017   44.1202 da         1 CLA      0.136800
    115 HHB        80.0055   60.4810   39.6503 da         1 CLA      0.138300
    116 HBD        76.1110   56.5363   35.2843 dc         1 CLA      0.107700
    117 HAB        77.0653   62.6989   44.3840 da         1 CLA      0.155200
    118 H93        88.0273   55.6367   39.8359 dc         1 CLA      0.069500
    119 H92        87.3623   55.9315   38.1284 dc         1 CLA      0.069500
    120 H91        88.1392   57.1223   39.0487 dc         1 CLA      0.069500
    121 H8         85.8141   57.5263   39.0037 dc         1 CLA      0.029300
    122 H72        84.2105   55.8014   40.3273 dc         1 CLA      0.044400
    123 H71        85.5981   54.6787   40.0904 dc         1 CLA      0.044400
    124 H62        85.3476   54.4505   37.7434 dc         1 CLA      0.015600
    125 H61        84.2969   55.8041   37.6737 dc         1 CLA      0.015600
    126 H52        82.6503   54.5663   39.0946 dc         1 CLA      0.033200
    127 H51        83.7996   53.2121   39.2384 dc         1 CLA      0.033200
    128 H43        82.1671   51.5936   37.9728 dc         1 CLA      0.037000
    129 H42        82.0701   51.7956   36.2809 dc         1 CLA      0.037000
    130 H41        83.7212   51.5949   37.0622 dc         1 CLA      0.037000
    131 H3A        80.3942   59.0828   37.4285 dc         1 CLA      0.041100
    132 H2A        79.1978   56.3446   36.9210 dc         1 CLA      0.083100
    133 H2         80.7995   54.4044   36.9527 da         1 CLA      0.180900
    134 H18        83.7509   62.4646   46.7847 dc         1 CLA     -0.003900
    135 H13        87.1021   58.2914   43.6092 dc         1 CLA      0.019700
    136 H12        81.6536   54.4806   34.6297 dc         1 CLA      0.120400
    137 H11        83.1211   55.2544   34.9617 dc         1 CLA      0.120400
    138 C1         68.7144   60.9549   50.5991 Z1         2 LUT      0.509236
    139 C2         67.3335   60.8687   51.3037 Z2         2 LUT     -0.434695
    140 C3         66.4751   62.1893   51.3211 Z3         2 LUT      0.437453
    141 O3         66.0257   62.5045   52.6267 S1         2 LUT     -0.547129
    142 C4         67.1131   63.3823   50.5923 Z4         2 LUT     -0.468603
    143 C5         67.7140   62.9538   49.3077 Z5         2 LUT      0.279246
    144 C6         68.5063   61.8350   49.3111 Z6         2 LUT     -0.305473
    145 C7         68.8709   61.1399   48.0986 Z7         2 LUT      0.069402
    146 C8         69.5829   61.7594   47.0753 Z8         2 LUT     -0.191631
    147 C9         70.1196   61.2310   45.8230 Z9         2 LUT      0.196698
    148 C10        71.1192   61.9989   45.2933 Y1         2 LUT     -0.208611
    149 C11        71.8620   61.7796   44.0819 Y2         2 LUT      0.030784
    150 C12        72.9490   62.6650   43.8447 Y3         2 LUT     -0.220316
    151 C13        73.9067   62.6280   42.7117 Y4         2 LUT      0.215937
    152 C14        74.9603   63.5099   42.7464 Y5         2 LUT     -0.185793
    153 C15        76.0006   63.7163   41.7931 Y6         2 LUT     -0.057835
    154 C16        69.3206   59.5604   50.3436 Y7         2 LUT     -0.405615
    155 C17        69.5621   61.6717   51.6477 Y7         2 LUT     -0.405615
    156 C18        67.1448   63.6087   48.0497 Y9         2 LUT     -0.369639
    157 C19        69.5959   59.9552   45.2072 W1         2 LUT     -0.333362
    158 C20        73.5709   61.8842   41.5064 W2         2 LUT     -0.323439
    159 C21        87.3052   64.7885   35.7352 Z1         2 LUT      0.406104
    160 C22        88.2626   64.3906   34.5970 Z2         2 LUT     -0.404965
    161 C23        88.7192   65.5383   33.6881 Z3         2 LUT      0.391255
    162 O23        89.6425   64.8571   32.7984 S1         2 LUT     -0.528210
    163 C24        87.4448   66.2825   33.2512 W6         2 LUT     -0.258361
    164 C25        86.2596   66.2352   33.8450 Z5         2 LUT      0.133546
    165 C26        86.0020   65.5362   35.1718 W8         2 LUT     -0.147008
    166 C27        85.1018   66.2687   36.1803 Z7         2 LUT      0.023843
    167 C28        84.0460   65.7510   36.8841 Z8         2 LUT     -0.216987
    168 C29        83.3186   66.0310   38.2204 Z9         2 LUT      0.206524
    169 C30        82.1502   65.4563   38.5608 Y1         2 LUT     -0.215556
    170 C31        81.4073   65.7535   39.7618 Y2         2 LUT      0.025142
    171 C32        80.2494   65.1081   40.0344 Y3         2 LUT     -0.212209
    172 C33        79.3984   65.3361   41.1638 Y4         2 LUT      0.240937
    173 C34        78.1696   64.7197   41.0871 Y5         2 LUT     -0.218862
    174 C35        77.0145   64.6448   41.9531 Y6         2 LUT     -0.023547
    175 C36        88.0553   65.8415   36.6439 Y7         2 LUT     -0.393485
    176 C37        87.1369   63.4695   36.4933 Y7         2 LUT     -0.393485
    177 C38        85.1141   66.9725   33.1865 Y9         2 LUT     -0.387526
    178 C39        84.1842   66.9447   39.0973 W1         2 LUT     -0.322618
    179 C40        79.8065   66.1050   42.4027 W2         2 LUT     -0.358472
    180 H403       79.5291   65.5374   43.2899 R7         2 LUT      0.097720
    181 H402       80.8863   66.2554   42.4407 R7         2 LUT      0.097720
    182 H401       79.2682   67.0313   42.5047 R7         2 LUT      0.097720
    183 H393       84.3282   67.8977   38.6405 R4         2 LUT      0.082505
    184 H392       83.6959   67.0181   40.0837 R4         2 LUT      0.082505
    185 H391       85.1134   66.4285   39.3217 R4         2 LUT      0.082505
    186 H383       84.8902   67.8139   33.9089 R1         2 LUT      0.104030
    187 H382       85.4698   67.4020   32.2473 R1         2 LUT      0.104030
    188 H381       84.2477   66.3470   32.9401 R1         2 LUT      0.104030
    189 H373       86.3115   63.5727   37.1967 T4         2 LUT      0.089537
    190 H372       86.8110   62.6425   35.8322 T4         2 LUT      0.089537
    191 H371       87.9996   63.1051   37.0864 T4         2 LUT      0.089537
    192 H363       89.0289   65.4748   37.0920 T4         2 LUT      0.089537
    193 H362       88.2852   66.7884   36.1861 T4         2 LUT      0.089537
    194 H361       87.3878   66.0973   37.5291 T4         2 LUT      0.089537
    195 H222       89.1318   63.8457   34.9565 U2         2 LUT      0.127376
    196 H221       87.7927   63.5704   33.9880 U2         2 LUT      0.127376
    197 H203       74.3941   61.2564   41.2017 R7         2 LUT      0.087068
    198 H202       72.6293   61.3718   41.5629 R7         2 LUT      0.087068
    199 H201       73.3581   62.5746   40.7141 R7         2 LUT      0.087068
    200 H193       69.4293   59.0948   45.8879 R4         2 LUT      0.089716
    201 H192       68.5751   60.0354   44.9463 R4         2 LUT      0.089716
    202 H191       70.0854   59.7412   44.2732 R4         2 LUT      0.089716
    203 H183       66.2239   64.1225   48.3478 R1         2 LUT      0.094572
    204 H182       67.8354   64.4237   47.8184 R1         2 LUT      0.094572
    205 H181       66.9897   62.8851   47.1986 R1         2 LUT      0.094572
    206 H173       68.9631   62.3617   52.2471 T4         2 LUT      0.093752
    207 H172       69.8437   60.9780   52.4374 T4         2 LUT      0.093752
    208 H171       70.4503   62.1528   51.1760 T4         2 LUT      0.093752
    209 H163       68.7132   58.9215   49.6064 T4         2 LUT      0.093752
    210 H162       70.3375   59.6078   49.8536 T4         2 LUT      0.093752
    211 H161       69.4297   58.9713   51.2425 T4         2 LUT      0.093752
    212 HO3        66.7598   62.5762   53.2924 Q1         2 LUT      0.300121
    213 H8         69.8731   62.7621   47.2638 U7         2 LUT      0.080784
    214 H7         68.4711   60.1459   48.0279 U6         2 LUT      0.042190
    215 H42        66.3851   64.2181   50.5895 U5         2 LUT      0.145166
    216 H41        67.8817   63.7775   51.2243 U5         2 LUT      0.145166
    217 H35        77.0707   65.2130   42.8670 T3         2 LUT      0.077919
    218 H34        78.0868   64.1549   40.1870 T2         2 LUT      0.073626
    219 H32        79.8183   64.3863   39.2884 T1         2 LUT      0.092510
    220 H31        81.7648   66.4409   40.4885 U9         2 LUT      0.070048
    221 H30        81.6663   64.8120   37.8230 U8         2 LUT      0.085442
    222 H3         65.5444   61.8546   50.7902 U3         2 LUT     -0.031596
    223 H28        83.6630   64.8202   36.4220 U7         2 LUT      0.084728
    224 H27        85.5465   67.2123   36.4252 U6         2 LUT      0.087291
    225 H26        85.4468   64.7327   34.8082 Q6         2 LUT      0.075325
    226 H24        87.5368   66.9157   32.3350 Q5         2 LUT      0.094482
    227 H23        89.3450   66.2545   34.2395 U3         2 LUT     -0.024869
    228 H22        66.7826   60.0258   50.9209 U2         2 LUT      0.127376
    229 H21        67.4414   60.5222   52.2676 U2         2 LUT      0.127376
    230 H15        76.0078   63.1167   40.9780 T3         2 LUT      0.093200
    231 H14        75.1405   64.0904   43.6445 T2         2 LUT      0.068865
    232 H12        73.1729   63.4618   44.6381 T1         2 LUT      0.095507
    233 H11        71.7258   60.8774   43.5598 U9         2 LUT      0.068930
    234 H10        71.3465   62.8940   45.8127 U8         2 LUT      0.083911
    235 H1         89.3533   64.8763   31.8676 Q1         2 LUT      0.297311
@<TRIPOS>BOND
    1     6     1 1
    2     7     2 1
    3     8     3 1
    4     9     4 1
    5    11     4 1
    6    12     6 1
    7    13     9 1
    8    16     9 1
    9    25     5 1
   10    25    16 1
   11    26    10 1
   12    26    17 1
   13    27    18 1
   14    28    14 1
   15    28    19 1
   16    29    12 1
   17    30    13 1
   18    31    24 1
   19    32     1 1
   20    32    25 1
   21    33    21 1
   22    33    26 1
   23    34    22 1
   24    34    27 1
   25    35    23 1
   26    35    28 1
   27    36    12 1
   28    36    24 1
   29    37    13 1
   30    37    15 1
   31    38    31 1
   32    39    20 1
   33    39    32 1
   34    40     2 1
   35    40    33 1
   36    41     3 1
   37    41    34 1
   38    42     4 1
   39    42    35 1
   40    43    38 1
   41    44     5 1
   42    44    17 1
   43    44    39 1
   44    45    10 1
   45    45    18 1
   46    45    40 1
   47    46    19 1
   48    46    41 1
   49    47    14 1
   50    47    16 1
   51    47    42 1
   52    48    38 1
   53    49    48 1
   54    50    49 1
   55    51    50 1
   56    52    51 1
   57    53    51 1
   58    54    53 1
   59    55    54 1
   60    56    55 1
   61    57    56 1
   62    58    56 1
   63    59    58 1
   64    60    59 1
   65    61    60 1
   66    62    61 1
   67    63    61 1
   68    64    27 1
   69    64    46 1
   70    65     5 1
   71    65    10 1
   72    65    64 1
   73    65    14 1
   74    66    23 1
   75    67    23 1
   76    68    23 1
   77    69    22 1
   78    70    22 1
   79    71    22 1
   80    72    21 1
   81    73    21 1
   82    74    21 1
   83    75    20 1
   84    76    20 1
   85    77    20 1
   86    78    15 1
   87    79    15 1
   88    80    15 1
   89    81     8 1
   90    82     8 1
   91    83     8 1
   92    84     7 1
   93    85     7 1
   94    86     6 1
   95    87     6 1
   96    88     3 1
   97    89     3 1
   98    90     1 1
   99    91     1 1
  100    92    63 1
  101    93    63 1
  102    94    63 1
  103    95    62 1
  104    96    62 1
  105    97    62 1
  106    98    60 1
  107    99    60 1
  108   100    59 1
  109   101    59 1
  110   102    58 1
  111   103    58 1
  112   104    57 1
  113   105    57 1
  114   106    57 1
  115   107    55 1
  116   108    55 1
  117   109    54 1
  118   110    54 1
  119   111    53 1
  120   112    53 1
  121   113    19 1
  122   114    18 1
  123   115    17 1
  124   116     9 1
  125   117     2 1
  126   118    52 1
  127   119    52 1
  128   120    52 1
  129   121    51 1
  130   122    50 1
  131   123    50 1
  132   124    49 1
  133   125    49 1
  134   126    48 1
  135   127    48 1
  136   128    43 1
  137   129    43 1
  138   130    43 1
  139   131    39 1
  140   132    32 1
  141   133    31 1
  142   134    61 1
  143   135    56 1
  144   136    24 1
  145   137    24 1
  146   139   138 1
  147   140   139 1
  148   141   140 1
  149   142   140 1
  150   143   142 1
  151   144   138 1
  152   144   143 1
  153   145   144 1
  154   146   145 1
  155   147   146 1
  156   148   147 1
  157   149   148 1
  158   150   149 1
  159   151   150 1
  160   152   151 1
  161   153   152 1
  162   154   138 1
  163   155   138 1
  164   156   143 1
  165   157   147 1
  166   158   151 1
  167   160   159 1
  168   161   160 1
  169   162   161 1
  170   163   161 1
  171   164   163 1
  172   165   159 1
  173   165   164 1
  174   166   165 1
  175   167   166 1
  176   168   167 1
  177   169   168 1
  178   170   169 1
  179   171   170 1
  180   172   171 1
  181   173   172 1
  182   174   153 1
  183   174   173 1
  184   175   159 1
  185   176   159 1
  186   177   164 1
  187   178   168 1
  188   179   172 1
  189   180   179 1
  190   181   179 1
  191   182   179 1
  192   183   178 1
  193   184   178 1
  194   185   178 1
  195   186   177 1
  196   187   177 1
  197   188   177 1
  198   189   176 1
  199   190   176 1
  200   191   176 1
  201   192   175 1
  202   193   175 1
  203   194   175 1
  204   195   160 1
  205   196   160 1
  206   197   158 1
  207   198   158 1
  208   199   158 1
  209   200   157 1
  210   201   157 1
  211   202   157 1
  212   203   156 1
  213   204   156 1
  214   205   156 1
  215   206   155 1
  216   207   155 1
  217   208   155 1
  218   209   154 1
  219   210   154 1
  220   211   154 1
  221   212   141 1
  222   213   146 1
  223   214   145 1
  224   215   142 1
  225   216   142 1
  226   217   174 1
  227   218   173 1
  228   219   171 1
  229   220   170 1
  230   221   169 1
  231   222   140 1
  232   223   167 1
  233   224   166 1
  234   225   165 1
  235   226   163 1
  236   227   161 1
  237   228   139 1
  238   229   139 1
  239   230   153 1
  240   231   152 1
  241   232   150 1
  242   233   149 1
  243   234   148 1
  244   235   162 1
  245   65    153 1
  246   65    174 1
@<TRIPOS>SUBSTRUCTURE
      1 CLA               1 ****               0 ****  **** 
      2 LUT             138 ****               0 ****  **** 
