@<TRIPOS>MOLECULE
Cpptraj generated mol2 file.
  235   246     2     0     0
SMALL
USER_CHARGES


@<TRIPOS>ATOM
      1 CAA        79.4567   58.1108   35.0235 a2         1 CLA     -0.055900
      2 CAB        79.1685   61.8983   44.0515 c8         1 CLA     -0.148500
      3 CAC        72.4532   57.7726   43.4029 a2         1 CLA     -0.012600
      4 CAD        75.5133   55.2415   36.3686 ck         1 CLA      0.398800
      5 NA         78.4563   58.6188   38.3420 ns         1 CLA     -0.225500
      6 CBA        80.7387   57.7723   34.1452 a2         1 CLA     -0.135000
      7 CBB        80.0237   62.8697   44.4540 c0         1 CLA     -0.395200
      8 CBC        72.5045   56.2093   43.4275 a3         1 CLA     -0.037700
      9 CBD        77.0071   55.7635   36.0730 a1         1 CLA     -0.053900
     10 NB         78.1493   60.1472   40.9355 nm         1 CLA     -0.295700
     11 OBD        74.9253   54.3455   35.8015 o2         1 CLA     -0.494600
     12 CGA        81.0936   56.2856   33.9793 c4         1 CLA      0.827000
     13 CGD        77.8721   54.5939   36.3660 c4         1 CLA      0.655300
     14 ND         75.6433   57.7276   38.8291 nm         1 CLA     -0.291600
     15 CED        78.2940   52.8248   37.8643 a3         1 CLA      0.005400
     16 CHA        77.2012   57.0349   36.9798 cs         1 CLA     -0.123800
     17 CHB        80.0611   60.1586   39.3067 aa         1 CLA     -0.291900
     18 CHC        76.9399   60.1378   43.0319 aa         1 CLA     -0.090400
     19 CHD        73.6456   57.6576   40.4069 aa         1 CLA     -0.052000
     20 CMA        81.9100   58.2513   37.6385 a3         1 CLA     -0.230700
     21 CMB        81.4408   62.0331   41.4079 a3         1 CLA     -0.180800
     22 CMC        74.5838   59.7218   45.1310 a3         1 CLA     -0.134000
     23 CMD        72.6547   55.5174   38.1586 a3         1 CLA     -0.141100
     24 C1         82.0650   54.4541   34.9955 a2         1 CLA      0.023000
     25 C1A        78.3574   57.7393   37.3537 ac         1 CLA     -0.015100
     26 C1B        79.3958   60.5322   40.5271 cr         1 CLA      0.054700
     27 C1C        75.7534   59.4857   42.6919 cn         1 CLA     -0.005600
     28 C1D        74.3130   57.2843   39.1486 ap         1 CLA     -0.047300
     29 O1A        80.9899   55.6802   32.9499 o2         1 CLA     -0.610800
     30 O1D        78.6956   54.1172   35.6105 o2         1 CLA     -0.558200
     31 C2         82.6617   54.0938   36.3215 c8         1 CLA     -0.325100
     32 C2A        79.6493   57.7243   36.5427 a1         1 CLA      0.098600
     33 C2B        80.0405   61.3795   41.5844 cb         1 CLA      0.088500
     34 C2C        74.6337   59.1716   43.7049 cb         1 CLA      0.053700
     35 C2D        73.9616   56.3073   38.1860 cb         1 CLA      0.058900
     36 O2A        81.7525   55.8736   35.0651 o1         1 CLA     -0.437200
     37 O2D        77.6338   54.1288   37.6039 o1         1 CLA     -0.357600
     38 C3         83.7736   53.3355   36.5769 c5         1 CLA      0.031200
     39 C3A        80.5871   58.7572   37.2269 a1         1 CLA      0.166800
     40 C3B        79.1564   61.3161   42.6636 cb         1 CLA      0.035000
     41 C3C        73.7255   58.4090   42.8936 cb         1 CLA     -0.089900
     42 C3D        75.0745   56.0937   37.4182 cb         1 CLA     -0.035900
     43 C4         83.6594   51.8469   36.7848 a3         1 CLA     -0.053300
     44 C4A        79.6514   59.2890   38.3115 ac         1 CLA      0.001800
     45 C4B        78.0251   60.5150   42.2593 cn         1 CLA     -0.020900
     46 C4C        74.1957   58.3505   41.4949 cr         1 CLA     -0.044400
     47 C4D        76.0364   57.0406   37.7819 c6         1 CLA     -0.046000
     48 C5         85.2090   53.9929   36.6518 a2         1 CLA     -0.070400
     49 C6         85.6092   54.5003   38.0832 a2         1 CLA      0.043900
     50 C7         86.9289   55.2814   38.2058 a2         1 CLA     -0.150000
     51 C8         87.0368   56.2247   39.4060 a1         1 CLA      0.064200
     52 C9         86.2294   57.5736   38.9630 a3         1 CLA     -0.259300
     53 C10        88.4769   56.5860   39.7996 a2         1 CLA     -0.071900
     54 C11        88.7367   57.4673   41.0203 a2         1 CLA      0.014500
     55 C12        88.1071   56.9202   42.3086 a2         1 CLA     -0.112100
     56 C13        88.2945   57.8501   43.5036 a1         1 CLA      0.089200
     57 C14        89.7112   57.6285   43.9567 a3         1 CLA     -0.239100
     58 C15        87.1906   57.6384   44.5578 a2         1 CLA     -0.102200
     59 C16        87.1684   58.7429   45.6882 a2         1 CLA      0.023900
     60 C17        85.9767   58.4432   46.5664 a2         1 CLA     -0.105700
     61 C18        86.0669   59.0753   47.9277 a1         1 CLA      0.206800
     62 C19        84.6000   59.2630   48.4375 a3         1 CLA     -0.280100
     63 C20        86.9172   58.2640   48.9423 a3         1 CLA     -0.280100
     64 NC         75.4468   59.0171   41.3955 nx         1 CLA     -0.309200
     65 MG         76.8267   58.9465   39.8099 mg         1 CLA      0.895000
     66 HMD3       71.8677   56.2245   37.7180 dc         1 CLA      0.064300
     67 HMD2       72.7512   54.6320   37.4775 dc         1 CLA      0.064300
     68 HMD1       72.3533   55.2231   39.1482 dc         1 CLA      0.064300
     69 HMC3       75.4342   59.3430   45.7109 dc         1 CLA      0.052100
     70 HMC2       74.7395   60.7402   45.0336 dc         1 CLA      0.052100
     71 HMC1       73.6142   59.5113   45.6954 dc         1 CLA      0.052100
     72 HMB3       81.8047   62.3891   42.3123 dc         1 CLA      0.063600
     73 HMB2       82.1251   61.3941   40.9979 dc         1 CLA      0.063600
     74 HMB1       81.3246   62.9853   40.8860 dc         1 CLA      0.063600
     75 HMA3       82.6354   58.4047   36.8247 dc         1 CLA      0.058300
     76 HMA2       82.2860   58.8120   38.5408 dc         1 CLA      0.058300
     77 HMA1       81.9176   57.1553   37.6937 dc         1 CLA      0.058300
     78 HED3       78.1713   52.5041   38.8554 dc         1 CLA      0.079300
     79 HED2       77.9241   52.0369   37.3625 dc         1 CLA      0.079300
     80 HED1       79.3761   52.8323   37.7376 dc         1 CLA      0.079300
     81 HBC3       73.2681   55.6726   43.9715 dc         1 CLA      0.016300
     82 HBC2       71.5601   55.8903   43.8362 dc         1 CLA      0.016300
     83 HBC1       72.7252   55.8075   42.4192 dc         1 CLA      0.016300
     84 HBB2       79.8375   63.4458   45.4194 da         1 CLA      0.183000
     85 HBB1       80.7495   63.3074   43.7167 da         1 CLA      0.183000
     86 HBA2       80.5446   58.1451   33.0910 dc         1 CLA      0.029400
     87 HBA1       81.5635   58.3278   34.6291 dc         1 CLA      0.029400
     88 HAC2       72.2684   58.1433   44.4579 dc         1 CLA      0.029300
     89 HAC1       71.6721   58.1055   42.7084 dc         1 CLA      0.029300
     90 HAA2       78.7498   57.4417   34.5671 dc         1 CLA      0.028700
     91 HAA1       79.1263   59.1769   34.9998 dc         1 CLA      0.028700
     92 H203       86.3482   57.3195   49.0470 dc         1 CLA      0.065600
     93 H202       87.8940   58.0252   48.4927 dc         1 CLA      0.065600
     94 H201       87.0016   58.8875   49.8453 dc         1 CLA      0.065600
     95 H193       84.6556   59.5488   49.5199 dc         1 CLA      0.065600
     96 H192       84.2276   60.0853   47.8217 dc         1 CLA      0.065600
     97 H191       83.9962   58.3644   48.2437 dc         1 CLA      0.065600
     98 H172       85.1657   58.7796   45.9562 dc         1 CLA      0.027600
     99 H171       85.8161   57.3949   46.7447 dc         1 CLA      0.027600
    100 H162       88.1107   58.4884   46.2047 dc         1 CLA      0.002900
    101 H161       87.1499   59.7469   45.1913 dc         1 CLA      0.002900
    102 H152       86.2597   57.7453   43.9733 dc         1 CLA      0.029100
    103 H151       87.2353   56.5919   44.9823 dc         1 CLA      0.029100
    104 H143       90.0595   58.5093   44.5856 dc         1 CLA      0.063600
    105 H142       89.7200   56.6843   44.5318 dc         1 CLA      0.063600
    106 H141       90.3491   57.5295   43.0404 dc         1 CLA      0.063600
    107 H122       87.0626   56.7320   42.0061 dc         1 CLA      0.032500
    108 H121       88.5463   55.8902   42.5194 dc         1 CLA      0.032500
    109 H112       89.7397   57.6721   41.2294 dc         1 CLA      0.006600
    110 H111       88.2465   58.3997   40.8659 dc         1 CLA      0.006600
    111 H102       89.0547   55.6888   39.9524 dc         1 CLA      0.024100
    112 H101       89.0624   57.1099   38.9866 dc         1 CLA      0.024100
    113 HHD        72.6827   57.2132   40.3861 da         1 CLA      0.174300
    114 HHC        77.0943   60.3285   44.1179 da         1 CLA      0.136800
    115 HHB        81.0835   60.5808   39.2636 da         1 CLA      0.138300
    116 HBD        77.1291   55.9998   34.9488 dc         1 CLA      0.107700
    117 HAB        78.3580   61.7979   44.8331 da         1 CLA      0.155200
    118 H93        86.2073   58.1173   39.8977 dc         1 CLA      0.069500
    119 H92        86.7582   58.1543   38.1613 dc         1 CLA      0.069500
    120 H91        85.1840   57.3256   38.6975 dc         1 CLA      0.069500
    121 H8         86.4432   55.7882   40.2247 dc         1 CLA      0.029300
    122 H72        87.6832   54.5850   38.4091 dc         1 CLA      0.044400
    123 H71        87.2460   55.7642   37.3035 dc         1 CLA      0.044400
    124 H62        84.8663   55.1827   38.4185 dc         1 CLA      0.015600
    125 H61        85.6692   53.6029   38.7291 dc         1 CLA      0.015600
    126 H52        85.9264   53.1471   36.4162 dc         1 CLA      0.033200
    127 H51        85.2766   54.8299   35.9974 dc         1 CLA      0.033200
    128 H43        84.2224   51.5671   37.6031 dc         1 CLA      0.037000
    129 H42        82.6286   51.5023   36.8757 dc         1 CLA      0.037000
    130 H41        84.0854   51.3721   35.9151 dc         1 CLA      0.037000
    131 H3A        80.7489   59.6333   36.5470 dc         1 CLA      0.041100
    132 H2A        80.0937   56.7210   36.6240 dc         1 CLA      0.083100
    133 H2         82.3705   54.7523   37.1258 da         1 CLA      0.180900
    134 H18        86.4995   60.0785   47.8805 dc         1 CLA     -0.003900
    135 H13        88.2440   58.9644   43.2874 dc         1 CLA      0.019700
    136 H12        81.1907   53.7763   34.8657 dc         1 CLA      0.120400
    137 H11        82.7818   54.2722   34.1674 dc         1 CLA      0.120400
    138 C1         69.2145   61.4503   50.5026 Z1         2 LUT      0.509236
    139 C2         69.4421   62.8427   51.3368 Z2         2 LUT     -0.434695
    140 C3         68.2619   63.8084   51.6040 Z3         2 LUT      0.437453
    141 O3         68.8363   65.0764   51.7475 S1         2 LUT     -0.547129
    142 C4         67.3845   63.7655   50.3253 Z4         2 LUT     -0.468603
    143 C5         67.9684   63.0449   49.0749 Z5         2 LUT      0.279246
    144 C6         68.7658   61.9325   49.1575 Z6         2 LUT     -0.305473
    145 C7         69.5101   61.4758   47.9882 Z7         2 LUT      0.069402
    146 C8         70.2985   62.2232   47.1987 Z8         2 LUT     -0.191631
    147 C9         71.0888   61.8616   46.0131 Z9         2 LUT      0.196698
    148 C10        72.0605   62.7515   45.6781 Y1         2 LUT     -0.208611
    149 C11        72.7295   62.8207   44.4469 Y2         2 LUT      0.030784
    150 C12        73.8005   63.5908   44.0790 Y3         2 LUT     -0.220316
    151 C13        74.6349   63.5499   42.8756 Y4         2 LUT      0.215937
    152 C14        75.8015   64.2327   42.9495 Y5         2 LUT     -0.185793
    153 C15        76.9541   64.1982   42.0400 Y6         2 LUT     -0.057835
    154 C16        68.0752   60.8457   51.2881 Y7         2 LUT     -0.405615
    155 C17        70.4242   60.4907   50.6615 Y7         2 LUT     -0.405615
    156 C18        67.6422   63.7971   47.8207 Y9         2 LUT     -0.369639
    157 C19        70.6689   60.6076   45.2586 W1         2 LUT     -0.333362
    158 C20        74.2371   62.8024   41.6197 W2         2 LUT     -0.323439
    159 C21        88.3854   65.5062   36.2642 Z1         2 LUT      0.406104
    160 C22        89.0429   64.9412   34.9642 Z2         2 LUT     -0.404965
    161 C23        89.2678   65.9313   33.8500 Z3         2 LUT      0.391255
    162 O23        89.9364   65.0979   32.8459 S1         2 LUT     -0.528210
    163 C24        88.0116   66.6832   33.5585 W6         2 LUT     -0.258361
    164 C25        86.9421   66.7830   34.4020 Z5         2 LUT      0.133546
    165 C26        86.9940   66.0664   35.7722 W8         2 LUT     -0.147008
    166 C27        86.2579   66.7066   36.9472 Z7         2 LUT      0.023843
    167 C28        85.0719   66.4226   37.4565 Z8         2 LUT     -0.216987
    168 C29        84.4571   66.9137   38.7633 Z9         2 LUT      0.206524
    169 C30        83.4070   66.0618   39.0512 Y1         2 LUT     -0.215556
    170 C31        82.5406   66.0774   40.2604 Y2         2 LUT      0.025142
    171 C32        81.3529   65.4154   40.4147 Y3         2 LUT     -0.212209
    172 C33        80.3884   65.4634   41.4695 Y4         2 LUT      0.240937
    173 C34        79.1853   64.8296   41.3504 Y5         2 LUT     -0.218862
    174 C35        78.0568   64.9451   42.1840 Y6         2 LUT     -0.023547
    175 C36        89.3768   66.6106   36.6501 Y7         2 LUT     -0.393485
    176 C37        88.3505   64.4300   37.4259 Y7         2 LUT     -0.393485
    177 C38        85.5622   67.3835   34.0443 Y9         2 LUT     -0.387526
    178 C39        85.1171   67.9399   39.5040 W1         2 LUT     -0.322618
    179 C40        80.8781   65.9392   42.7993 W2         2 LUT     -0.358472
    180 H403       80.1069   65.6634   43.5505 R7         2 LUT      0.097720
    181 H402       81.8344   65.5814   43.1078 R7         2 LUT      0.097720
    182 H401       80.9412   67.0629   42.7674 R7         2 LUT      0.097720
    183 H393       84.4374   68.4773   40.1175 R4         2 LUT      0.082505
    184 H392       85.7382   67.4859   40.2972 R4         2 LUT      0.082505
    185 H391       85.7945   68.6338   38.8733 R4         2 LUT      0.082505
    186 H383       84.9386   66.5240   33.8924 R1         2 LUT      0.104030
    187 H382       85.1227   68.0162   34.8530 R1         2 LUT      0.104030
    188 H381       85.5315   67.9499   33.1235 R1         2 LUT      0.104030
    189 H373       89.2997   63.9199   37.7675 T4         2 LUT      0.089537
    190 H372       87.8657   64.8573   38.2765 T4         2 LUT      0.089537
    191 H371       87.7063   63.6018   37.0136 T4         2 LUT      0.089537
    192 H363       89.2418   67.3459   35.8908 T4         2 LUT      0.089537
    193 H362       89.1352   67.0197   37.5816 T4         2 LUT      0.089537
    194 H361       90.4453   66.4400   36.7367 T4         2 LUT      0.089537
    195 H222       90.0212   64.5543   35.2892 U2         2 LUT      0.127376
    196 H221       88.4359   64.1220   34.5553 U2         2 LUT      0.127376
    197 H203       73.2385   62.4123   41.6275 R7         2 LUT      0.087068
    198 H202       74.2147   63.4751   40.8076 R7         2 LUT      0.087068
    199 H201       74.9211   61.9483   41.4074 R7         2 LUT      0.087068
    200 H193       69.5844   60.5744   44.9779 R4         2 LUT      0.089716
    201 H192       71.2972   60.3531   44.4248 R4         2 LUT      0.089716
    202 H191       70.7886   59.7022   45.8456 R4         2 LUT      0.089716
    203 H183       66.6736   64.2258   47.8872 R1         2 LUT      0.094572
    204 H182       68.4282   64.5216   47.6482 R1         2 LUT      0.094572
    205 H181       67.6379   63.1234   46.9694 R1         2 LUT      0.094572
    206 H173       71.4177   60.8029   50.2250 T4         2 LUT      0.093752
    207 H172       70.6425   60.2614   51.6859 T4         2 LUT      0.093752
    208 H171       70.2166   59.5344   50.2349 T4         2 LUT      0.093752
    209 H163       67.7729   59.8702   50.8162 T4         2 LUT      0.093752
    210 H162       68.4773   60.7085   52.2654 T4         2 LUT      0.093752
    211 H161       67.1957   61.4271   51.3374 T4         2 LUT      0.093752
    212 HO3        68.2482   65.7141   52.1262 Q1         2 LUT      0.300121
    213 H8         70.4548   63.2190   47.4820 U7         2 LUT      0.080784
    214 H7         69.4295   60.4399   47.7026 U6         2 LUT      0.042190
    215 H42        66.4924   63.1691   50.5468 U5         2 LUT      0.145166
    216 H41        66.8660   64.7488   50.1653 U5         2 LUT      0.145166
    217 H35        78.1352   65.7493   42.9144 T3         2 LUT      0.077919
    218 H34        79.0106   64.1863   40.5298 T2         2 LUT      0.073626
    219 H32        81.0552   64.8236   39.5410 T1         2 LUT      0.092510
    220 H31        82.8203   66.6657   41.0924 U9         2 LUT      0.070048
    221 H30        83.0335   65.2962   38.3508 U8         2 LUT      0.085442
    222 H3         67.5556   63.4671   52.4221 U3         2 LUT     -0.031596
    223 H28        84.4696   65.7151   36.9688 U7         2 LUT      0.084728
    224 H27        86.9086   67.4430   37.4121 U6         2 LUT      0.087291
    225 H26        86.3801   65.1639   35.6997 Q6         2 LUT      0.075325
    226 H24        87.9359   67.1481   32.6309 Q5         2 LUT      0.094482
    227 H23        90.0942   66.6046   34.2542 U3         2 LUT     -0.024869
    228 H22        69.8514   62.6792   52.3278 U2         2 LUT      0.127376
    229 H21        70.1103   63.5291   50.7892 U2         2 LUT      0.127376
    230 H15        77.0029   63.5354   41.1622 T3         2 LUT      0.093200
    231 H14        75.9973   64.7599   43.8932 T2         2 LUT      0.068865
    232 H12        74.1803   64.1796   44.8544 T1         2 LUT      0.095507
    233 H11        72.4288   62.1244   43.7130 U9         2 LUT      0.068930
    234 H10        72.1540   63.5584   46.3903 U8         2 LUT      0.083911
    235 H1         89.3368   64.7242   32.1558 Q1         2 LUT      0.297311
@<TRIPOS>BOND
    1     6     1 1
    2     7     2 1
    3     8     3 1
    4     9     4 1
    5    11     4 1
    6    12     6 1
    7    13     9 1
    8    16     9 1
    9    25     5 1
   10    25    16 1
   11    26    10 1
   12    26    17 1
   13    27    18 1
   14    28    14 1
   15    28    19 1
   16    29    12 1
   17    30    13 1
   18    31    24 1
   19    32     1 1
   20    32    25 1
   21    33    21 1
   22    33    26 1
   23    34    22 1
   24    34    27 1
   25    35    23 1
   26    35    28 1
   27    36    12 1
   28    36    24 1
   29    37    13 1
   30    37    15 1
   31    38    31 1
   32    39    20 1
   33    39    32 1
   34    40     2 1
   35    40    33 1
   36    41     3 1
   37    41    34 1
   38    42     4 1
   39    42    35 1
   40    43    38 1
   41    44     5 1
   42    44    17 1
   43    44    39 1
   44    45    10 1
   45    45    18 1
   46    45    40 1
   47    46    19 1
   48    46    41 1
   49    47    14 1
   50    47    16 1
   51    47    42 1
   52    48    38 1
   53    49    48 1
   54    50    49 1
   55    51    50 1
   56    52    51 1
   57    53    51 1
   58    54    53 1
   59    55    54 1
   60    56    55 1
   61    57    56 1
   62    58    56 1
   63    59    58 1
   64    60    59 1
   65    61    60 1
   66    62    61 1
   67    63    61 1
   68    64    27 1
   69    64    46 1
   70    65     5 1
   71    65    10 1
   72    65    64 1
   73    65    14 1
   74    66    23 1
   75    67    23 1
   76    68    23 1
   77    69    22 1
   78    70    22 1
   79    71    22 1
   80    72    21 1
   81    73    21 1
   82    74    21 1
   83    75    20 1
   84    76    20 1
   85    77    20 1
   86    78    15 1
   87    79    15 1
   88    80    15 1
   89    81     8 1
   90    82     8 1
   91    83     8 1
   92    84     7 1
   93    85     7 1
   94    86     6 1
   95    87     6 1
   96    88     3 1
   97    89     3 1
   98    90     1 1
   99    91     1 1
  100    92    63 1
  101    93    63 1
  102    94    63 1
  103    95    62 1
  104    96    62 1
  105    97    62 1
  106    98    60 1
  107    99    60 1
  108   100    59 1
  109   101    59 1
  110   102    58 1
  111   103    58 1
  112   104    57 1
  113   105    57 1
  114   106    57 1
  115   107    55 1
  116   108    55 1
  117   109    54 1
  118   110    54 1
  119   111    53 1
  120   112    53 1
  121   113    19 1
  122   114    18 1
  123   115    17 1
  124   116     9 1
  125   117     2 1
  126   118    52 1
  127   119    52 1
  128   120    52 1
  129   121    51 1
  130   122    50 1
  131   123    50 1
  132   124    49 1
  133   125    49 1
  134   126    48 1
  135   127    48 1
  136   128    43 1
  137   129    43 1
  138   130    43 1
  139   131    39 1
  140   132    32 1
  141   133    31 1
  142   134    61 1
  143   135    56 1
  144   136    24 1
  145   137    24 1
  146   139   138 1
  147   140   139 1
  148   141   140 1
  149   142   140 1
  150   143   142 1
  151   144   138 1
  152   144   143 1
  153   145   144 1
  154   146   145 1
  155   147   146 1
  156   148   147 1
  157   149   148 1
  158   150   149 1
  159   151   150 1
  160   152   151 1
  161   153   152 1
  162   154   138 1
  163   155   138 1
  164   156   143 1
  165   157   147 1
  166   158   151 1
  167   160   159 1
  168   161   160 1
  169   162   161 1
  170   163   161 1
  171   164   163 1
  172   165   159 1
  173   165   164 1
  174   166   165 1
  175   167   166 1
  176   168   167 1
  177   169   168 1
  178   170   169 1
  179   171   170 1
  180   172   171 1
  181   173   172 1
  182   174   153 1
  183   174   173 1
  184   175   159 1
  185   176   159 1
  186   177   164 1
  187   178   168 1
  188   179   172 1
  189   180   179 1
  190   181   179 1
  191   182   179 1
  192   183   178 1
  193   184   178 1
  194   185   178 1
  195   186   177 1
  196   187   177 1
  197   188   177 1
  198   189   176 1
  199   190   176 1
  200   191   176 1
  201   192   175 1
  202   193   175 1
  203   194   175 1
  204   195   160 1
  205   196   160 1
  206   197   158 1
  207   198   158 1
  208   199   158 1
  209   200   157 1
  210   201   157 1
  211   202   157 1
  212   203   156 1
  213   204   156 1
  214   205   156 1
  215   206   155 1
  216   207   155 1
  217   208   155 1
  218   209   154 1
  219   210   154 1
  220   211   154 1
  221   212   141 1
  222   213   146 1
  223   214   145 1
  224   215   142 1
  225   216   142 1
  226   217   174 1
  227   218   173 1
  228   219   171 1
  229   220   170 1
  230   221   169 1
  231   222   140 1
  232   223   167 1
  233   224   166 1
  234   225   165 1
  235   226   163 1
  236   227   161 1
  237   228   139 1
  238   229   139 1
  239   230   153 1
  240   231   152 1
  241   232   150 1
  242   233   149 1
  243   234   148 1
  244   235   162 1
  245   65    153 1
  246   65    174 1
@<TRIPOS>SUBSTRUCTURE
      1 CLA               1 ****               0 ****  **** 
      2 LUT             138 ****               0 ****  **** 
