@<TRIPOS>MOLECULE
Cpptraj generated mol2 file.
  235   246     2     0     0
SMALL
USER_CHARGES


@<TRIPOS>ATOM
      1 CAA        78.4418   58.3418   34.3054 a2         1 CLA     -0.055900
      2 CAB        78.8875   62.3763   43.2014 c8         1 CLA     -0.148500
      3 CAC        71.9432   58.2007   43.0509 a2         1 CLA     -0.012600
      4 CAD        74.0687   56.3407   35.5782 ck         1 CLA      0.398800
      5 NA         77.4860   59.1279   37.7587 ns         1 CLA     -0.225500
      6 CBA        79.6779   57.9948   33.5429 a2         1 CLA     -0.135000
      7 CBB        79.9441   62.3791   44.0069 c0         1 CLA     -0.395200
      8 CBC        72.0843   56.6531   43.0602 a3         1 CLA     -0.037700
      9 CBD        75.6177   56.7037   35.3234 a1         1 CLA     -0.053900
     10 NB         77.5818   60.4511   40.3433 nm         1 CLA     -0.295700
     11 OBD        73.3569   55.6747   34.7938 o2         1 CLA     -0.494600
     12 CGA        79.8599   56.4859   33.3638 c4         1 CLA      0.827000
     13 CGD        76.3044   55.3232   35.3123 c4         1 CLA      0.655300
     14 ND         74.6992   58.3034   38.4956 nm         1 CLA     -0.291600
     15 CED        76.6260   53.2719   36.6650 a3         1 CLA      0.005400
     16 CHA        75.9537   57.6773   36.4212 cs         1 CLA     -0.123800
     17 CHB        79.4743   60.0764   38.8108 aa         1 CLA     -0.291900
     18 CHC        76.3346   60.8938   42.4253 aa         1 CLA     -0.090400
     19 CHD        72.9711   58.1875   40.1684 aa         1 CLA     -0.052000
     20 CMA        80.7777   57.7908   37.1809 a3         1 CLA     -0.230700
     21 CMB        81.1035   61.8217   40.8725 a3         1 CLA     -0.180800
     22 CMC        74.3756   59.7939   44.7826 a3         1 CLA     -0.134000
     23 CMD        71.3925   56.5824   38.0510 a3         1 CLA     -0.141100
     24 C1         80.6526   54.4594   34.3086 a2         1 CLA      0.023000
     25 C1A        77.1752   58.3137   36.6624 ac         1 CLA     -0.015100
     26 C1B        78.9003   60.6376   39.9438 cr         1 CLA      0.054700
     27 C1C        75.2051   60.1252   42.2475 cn         1 CLA     -0.005600
     28 C1D        73.4243   57.8829   38.9001 ap         1 CLA     -0.047300
     29 O1A        79.5000   55.8611   32.3328 o2         1 CLA     -0.610800
     30 O1D        77.2326   54.9680   34.6482 o2         1 CLA     -0.558200
     31 C2         81.2287   53.9860   35.6235 c8         1 CLA     -0.325100
     32 C2A        78.4735   57.9771   35.8677 a1         1 CLA      0.098600
     33 C2B        79.6424   61.4480   40.9260 cb         1 CLA      0.088500
     34 C2C        74.2514   59.6575   43.2112 cb         1 CLA      0.053700
     35 C2D        72.7778   57.1595   37.8705 cb         1 CLA      0.058900
     36 O2A        80.5080   55.9371   34.4459 o1         1 CLA     -0.437200
     37 O2D        75.8455   54.5224   36.3763 o1         1 CLA     -0.357600
     38 C3         81.6419   52.7224   35.8882 c5         1 CLA      0.031200
     39 C3A        79.5603   58.7160   36.7087 a1         1 CLA      0.166800
     40 C3B        78.7265   61.6769   41.9668 cb         1 CLA      0.035000
     41 C3C        73.2068   58.9769   42.5125 cb         1 CLA     -0.089900
     42 C3D        73.7801   56.9395   36.9204 cb         1 CLA     -0.035900
     43 C4         80.5613   51.6447   36.1199 a3         1 CLA     -0.053300
     44 C4A        78.8269   59.3364   37.7960 ac         1 CLA      0.001800
     45 C4B        77.4627   61.0647   41.5735 cn         1 CLA     -0.020900
     46 C4C        73.6586   58.9018   41.1437 cr         1 CLA     -0.044400
     47 C4D        74.8794   57.6856   37.3277 c6         1 CLA     -0.046000
     48 C5         83.1099   52.2859   35.6160 a2         1 CLA     -0.070400
     49 C6         84.1053   53.3790   36.0090 a2         1 CLA      0.043900
     50 C7         84.2726   53.8006   37.5024 a2         1 CLA     -0.150000
     51 C8         85.1852   55.0453   37.8036 a1         1 CLA      0.064200
     52 C9         86.6264   54.7155   37.3937 a3         1 CLA     -0.259300
     53 C10        85.0577   55.3939   39.3162 a2         1 CLA     -0.071900
     54 C11        83.7178   55.7886   39.8981 a2         1 CLA      0.014500
     55 C12        83.9614   55.9746   41.4334 a2         1 CLA     -0.112100
     56 C13        82.6131   56.1141   42.2082 a1         1 CLA      0.089200
     57 C14        81.7575   57.3129   41.6105 a3         1 CLA     -0.239100
     58 C15        82.8610   56.2125   43.7259 a2         1 CLA     -0.102200
     59 C16        83.7561   57.3757   44.2622 a2         1 CLA      0.023900
     60 C17        84.0027   57.1449   45.7900 a2         1 CLA     -0.105700
     61 C18        84.7444   58.2052   46.6256 a1         1 CLA      0.206800
     62 C19        84.7951   57.7517   48.0981 a3         1 CLA     -0.280100
     63 C20        86.1787   58.5234   46.0421 a3         1 CLA     -0.280100
     64 NC         74.8750   59.5865   40.9942 nx         1 CLA     -0.309200
     65 MG         76.0473   59.5844   39.3614 mg         1 CLA      0.895000
     66 HMD3       70.9348   56.5385   37.0593 dc         1 CLA      0.064300
     67 HMD2       71.4409   55.5494   38.3986 dc         1 CLA      0.064300
     68 HMD1       70.7402   57.2180   38.6842 dc         1 CLA      0.064300
     69 HMC3       73.4599   59.4588   45.2729 dc         1 CLA      0.052100
     70 HMC2       75.1251   59.1431   45.1246 dc         1 CLA      0.052100
     71 HMC1       74.5879   60.8253   44.9010 dc         1 CLA      0.052100
     72 HMB3       81.4304   61.9729   39.8703 dc         1 CLA      0.063600
     73 HMB2       81.3756   62.6758   41.4647 dc         1 CLA      0.063600
     74 HMB1       81.7081   61.0629   41.2351 dc         1 CLA      0.063600
     75 HMA3       81.4107   57.4867   36.3127 dc         1 CLA      0.058300
     76 HMA2       81.4811   58.2673   37.8609 dc         1 CLA      0.058300
     77 HMA1       80.3278   56.9329   37.7135 dc         1 CLA      0.058300
     78 HED3       76.9143   52.7580   35.7350 dc         1 CLA      0.079300
     79 HED2       77.5325   53.6231   37.1048 dc         1 CLA      0.079300
     80 HED1       76.1177   52.5822   37.3037 dc         1 CLA      0.079300
     81 HBC3       72.2778   56.2892   42.0063 dc         1 CLA      0.016300
     82 HBC2       72.8908   56.3570   43.7455 dc         1 CLA      0.016300
     83 HBC1       71.2566   56.1368   43.4000 dc         1 CLA      0.016300
     84 HBB2       80.0103   62.8905   45.0264 da         1 CLA      0.183000
     85 HBB1       80.7064   61.6999   43.6210 da         1 CLA      0.183000
     86 HBA2       79.7928   58.4715   32.5822 dc         1 CLA      0.029400
     87 HBA1       80.5655   58.3938   34.0622 dc         1 CLA      0.029400
     88 HAC2       71.6895   58.6477   44.0149 dc         1 CLA      0.029300
     89 HAC1       71.1555   58.3685   42.3993 dc         1 CLA      0.029300
     90 HAA2       77.6331   57.7047   33.7660 dc         1 CLA      0.028700
     91 HAA1       78.2505   59.3705   34.1983 dc         1 CLA      0.028700
     92 H203       86.5764   59.3415   46.6416 dc         1 CLA      0.065600
     93 H202       86.8351   57.6166   46.0664 dc         1 CLA      0.065600
     94 H201       86.1081   58.8366   44.9984 dc         1 CLA      0.065600
     95 H193       85.0004   58.6330   48.7110 dc         1 CLA      0.065600
     96 H192       83.7919   57.4297   48.3116 dc         1 CLA      0.065600
     97 H191       85.5155   56.9255   48.2039 dc         1 CLA      0.065600
     98 H172       83.0299   57.1271   46.2843 dc         1 CLA      0.027600
     99 H171       84.4908   56.1617   46.0164 dc         1 CLA      0.027600
    100 H162       84.7096   57.4243   43.6777 dc         1 CLA      0.002900
    101 H161       83.2065   58.2943   44.1886 dc         1 CLA      0.002900
    102 H152       81.9525   56.3234   44.2934 dc         1 CLA      0.029100
    103 H151       83.2756   55.2035   43.9546 dc         1 CLA      0.029100
    104 H143       82.4445   58.1514   41.4564 dc         1 CLA      0.063600
    105 H142       81.3379   57.0272   40.6404 dc         1 CLA      0.063600
    106 H141       80.9044   57.5860   42.2053 dc         1 CLA      0.063600
    107 H122       84.4415   55.0612   41.9107 dc         1 CLA      0.032500
    108 H121       84.5172   56.8491   41.6653 dc         1 CLA      0.032500
    109 H112       83.3459   56.7061   39.3912 dc         1 CLA      0.006600
    110 H111       83.0009   54.9672   39.7659 dc         1 CLA      0.006600
    111 H102       85.2736   54.4695   39.8169 dc         1 CLA      0.024100
    112 H101       85.8451   56.0970   39.5648 dc         1 CLA      0.024100
    113 HHD        71.9794   57.6950   40.4368 da         1 CLA      0.174300
    114 HHC        76.5843   61.2796   43.4006 da         1 CLA      0.136800
    115 HHB        80.5261   60.1293   38.9456 da         1 CLA      0.138300
    116 HBD        75.6139   57.0879   34.3438 dc         1 CLA      0.107700
    117 HAB        78.0867   62.9804   43.5376 da         1 CLA      0.155200
    118 H93        87.0021   53.9533   38.0978 dc         1 CLA      0.069500
    119 H92        86.6436   54.3439   36.3647 dc         1 CLA      0.069500
    120 H91        87.1112   55.6892   37.4699 dc         1 CLA      0.069500
    121 H8         84.7696   55.8809   37.1693 dc         1 CLA      0.029300
    122 H72        83.2796   54.0276   37.9662 dc         1 CLA      0.044400
    123 H71        84.7519   52.9364   37.8945 dc         1 CLA      0.044400
    124 H62        85.0113   53.0138   35.6486 dc         1 CLA      0.015600
    125 H61        83.8253   54.3143   35.4904 dc         1 CLA      0.015600
    126 H52        83.3235   51.3435   36.1657 dc         1 CLA      0.033200
    127 H51        83.2623   52.1131   34.5888 dc         1 CLA      0.033200
    128 H43        79.5966   52.1622   36.4314 dc         1 CLA      0.037000
    129 H42        80.2346   51.2662   35.1079 dc         1 CLA      0.037000
    130 H41        80.8343   50.8956   36.8058 dc         1 CLA      0.037000
    131 H3A        80.0153   59.5103   36.1510 dc         1 CLA      0.041100
    132 H2A        78.6781   56.9758   35.9115 dc         1 CLA      0.083100
    133 H2         81.2294   54.7149   36.4642 da         1 CLA      0.180900
    134 H18        84.1466   59.0712   46.6055 dc         1 CLA     -0.003900
    135 H13        82.0183   55.2504   42.0822 dc         1 CLA      0.019700
    136 H12        79.7000   53.8982   34.0761 dc         1 CLA      0.120400
    137 H11        81.3654   54.0367   33.6117 dc         1 CLA      0.120400
    138 C1         68.9121   61.9507   50.5964 Z1         2 LUT      0.509236
    139 C2         68.3445   62.4773   51.9143 Z2         2 LUT     -0.434695
    140 C3         66.8595   62.7806   51.7175 Z3         2 LUT      0.437453
    141 O3         66.2871   63.1638   52.9562 S1         2 LUT     -0.547129
    142 C4         66.6712   63.8543   50.6880 Z4         2 LUT     -0.468603
    143 C5         67.4329   63.6488   49.3711 Z5         2 LUT      0.279246
    144 C6         68.4589   62.7161   49.3006 Z6         2 LUT     -0.305473
    145 C7         69.0853   62.3978   48.0123 Z7         2 LUT      0.069402
    146 C8         69.9547   63.0513   47.2570 Z8         2 LUT     -0.191631
    147 C9         70.5170   62.5690   46.0466 Z9         2 LUT      0.196698
    148 C10        71.5889   63.3266   45.6119 Y1         2 LUT     -0.208611
    149 C11        72.2832   63.2364   44.3259 Y2         2 LUT      0.030784
    150 C12        73.5297   63.7357   44.0088 Y3         2 LUT     -0.220316
    151 C13        74.3290   63.6929   42.8075 Y4         2 LUT      0.215937
    152 C14        75.5463   64.3543   42.7413 Y5         2 LUT     -0.185793
    153 C15        76.6045   64.5077   41.7201 Y6         2 LUT     -0.057835
    154 C16        68.6194   60.4438   50.4175 Y7         2 LUT     -0.405615
    155 C17        70.4523   61.9383   50.7567 Y7         2 LUT     -0.405615
    156 C18        66.8825   64.5280   48.3229 Y9         2 LUT     -0.369639
    157 C19        69.9025   61.4084   45.2881 W1         2 LUT     -0.333362
    158 C20        73.6764   63.2624   41.5432 W2         2 LUT     -0.323439
    159 C21        87.3336   65.8933   34.8661 Z1         2 LUT      0.406104
    160 C22        88.1903   65.3261   33.7800 Z2         2 LUT     -0.404965
    161 C23        88.4940   66.2070   32.6075 Z3         2 LUT      0.391255
    162 O23        89.2017   65.5070   31.6130 S1         2 LUT     -0.528210
    163 C24        87.3650   67.0846   32.2877 W6         2 LUT     -0.258361
    164 C25        86.2113   67.1632   32.9851 Z5         2 LUT      0.133546
    165 C26        85.9130   66.2813   34.2115 W8         2 LUT     -0.147008
    166 C27        84.9180   66.9751   35.1712 Z7         2 LUT      0.023843
    167 C28        84.1126   66.2893   36.0792 Z8         2 LUT     -0.216987
    168 C29        83.5322   66.8469   37.2610 Z9         2 LUT      0.206524
    169 C30        82.4715   66.1419   37.7750 Y1         2 LUT     -0.215556
    170 C31        81.7803   66.4551   38.9691 Y2         2 LUT      0.025142
    171 C32        80.7104   65.6932   39.4836 Y3         2 LUT     -0.212209
    172 C33        79.9509   66.0228   40.6783 Y4         2 LUT      0.240937
    173 C34        78.8587   65.2185   40.9081 Y5         2 LUT     -0.218862
    174 C35        77.8009   65.0755   41.9612 Y6         2 LUT     -0.023547
    175 C36        88.1134   67.0747   35.6029 Y7         2 LUT     -0.393485
    176 C37        87.0684   64.8323   35.9661 Y7         2 LUT     -0.393485
    177 C38        85.1556   68.1887   32.5539 Y9         2 LUT     -0.387526
    178 C39        84.0605   68.1133   37.7667 W1         2 LUT     -0.322618
    179 C40        80.4342   66.8939   41.8195 W2         2 LUT     -0.358472
    180 H403       79.6089   67.3983   42.2866 R7         2 LUT      0.097720
    181 H402       81.0119   66.2367   42.5461 R7         2 LUT      0.097720
    182 H401       81.0815   67.6633   41.4228 R7         2 LUT      0.097720
    183 H393       83.8530   68.8800   37.0497 R4         2 LUT      0.082505
    184 H392       83.8391   68.4298   38.7649 R4         2 LUT      0.082505
    185 H391       85.1629   68.1585   37.7906 R4         2 LUT      0.082505
    186 H383       84.1000   67.8430   32.7745 R1         2 LUT      0.104030
    187 H382       85.3210   69.0852   33.1294 R1         2 LUT      0.104030
    188 H381       85.1211   68.3775   31.5121 R1         2 LUT      0.104030
    189 H373       86.3926   65.3221   36.7365 T4         2 LUT      0.089537
    190 H372       86.7153   63.8514   35.5829 T4         2 LUT      0.089537
    191 H371       88.0128   64.5720   36.3548 T4         2 LUT      0.089537
    192 H363       87.4354   67.6983   36.2289 T4         2 LUT      0.089537
    193 H362       88.8567   66.7259   36.1782 T4         2 LUT      0.089537
    194 H361       88.5108   67.8181   34.9208 T4         2 LUT      0.089537
    195 H222       89.1170   64.9042   34.1678 U2         2 LUT      0.127376
    196 H221       87.6460   64.3934   33.4592 U2         2 LUT      0.127376
    197 H203       73.2654   62.3013   41.5441 R7         2 LUT      0.087068
    198 H202       72.8315   63.9091   41.3157 R7         2 LUT      0.087068
    199 H201       74.2753   63.4262   40.6699 R7         2 LUT      0.087068
    200 H193       70.6558   60.5864   45.4516 R4         2 LUT      0.089716
    201 H192       68.9559   61.1374   45.7968 R4         2 LUT      0.089716
    202 H191       69.6993   61.6786   44.2163 R4         2 LUT      0.089716
    203 H183       66.4920   64.0129   47.4573 R1         2 LUT      0.094572
    204 H182       66.1471   65.2419   48.6925 R1         2 LUT      0.094572
    205 H181       67.8138   65.0532   47.9139 R1         2 LUT      0.094572
    206 H173       70.7826   61.3516   51.5929 T4         2 LUT      0.093752
    207 H172       71.0765   61.4884   49.9835 T4         2 LUT      0.093752
    208 H171       70.7197   62.9771   50.9763 T4         2 LUT      0.093752
    209 H163       67.5328   60.1852   50.5248 T4         2 LUT      0.093752
    210 H162       68.9028   60.1064   49.4139 T4         2 LUT      0.093752
    211 H161       69.2171   59.8367   51.0465 T4         2 LUT      0.093752
    212 HO3        66.1236   62.4235   53.6032 Q1         2 LUT      0.300121
    213 H8         70.1192   64.0487   47.6210 U7         2 LUT      0.080784
    214 H7         68.6913   61.4316   47.6906 U6         2 LUT      0.042190
    215 H42        65.5920   63.9558   50.4947 U5         2 LUT      0.145166
    216 H41        67.0480   64.7476   51.1724 U5         2 LUT      0.145166
    217 H35        78.0220   65.4474   42.9062 T3         2 LUT      0.077919
    218 H34        78.4888   64.6934   40.0028 T2         2 LUT      0.073626
    219 H32        80.4766   64.8166   38.9786 T1         2 LUT      0.092510
    220 H31        82.0231   67.2846   39.6303 U9         2 LUT      0.070048
    221 H30        81.9889   65.2305   37.3002 U8         2 LUT      0.085442
    222 H3         66.4633   61.7221   51.4476 U3         2 LUT     -0.031596
    223 H28        83.8046   65.2758   35.9017 U7         2 LUT      0.084728
    224 H27        85.0001   68.0478   35.3834 U6         2 LUT      0.087291
    225 H26        85.4849   65.2808   33.7782 Q6         2 LUT      0.075325
    226 H24        87.4652   67.8662   31.4912 Q5         2 LUT      0.094482
    227 H23        89.1319   67.0231   33.0054 U3         2 LUT     -0.024869
    228 H22        68.5277   61.7719   52.7495 U2         2 LUT      0.127376
    229 H21        68.9174   63.3560   52.1976 U2         2 LUT      0.127376
    230 H15        76.2746   64.0289   40.7168 T3         2 LUT      0.093200
    231 H14        75.7020   64.9727   43.6033 T2         2 LUT      0.068865
    232 H12        74.0093   64.1775   44.8360 T1         2 LUT      0.095507
    233 H11        71.8580   62.6645   43.5374 U9         2 LUT      0.068930
    234 H10        71.8164   64.1876   46.2942 U8         2 LUT      0.083911
    235 H1         88.6159   65.1921   30.8353 Q1         2 LUT      0.297311
@<TRIPOS>BOND
    1     6     1 1
    2     7     2 1
    3     8     3 1
    4     9     4 1
    5    11     4 1
    6    12     6 1
    7    13     9 1
    8    16     9 1
    9    25     5 1
   10    25    16 1
   11    26    10 1
   12    26    17 1
   13    27    18 1
   14    28    14 1
   15    28    19 1
   16    29    12 1
   17    30    13 1
   18    31    24 1
   19    32     1 1
   20    32    25 1
   21    33    21 1
   22    33    26 1
   23    34    22 1
   24    34    27 1
   25    35    23 1
   26    35    28 1
   27    36    12 1
   28    36    24 1
   29    37    13 1
   30    37    15 1
   31    38    31 1
   32    39    20 1
   33    39    32 1
   34    40     2 1
   35    40    33 1
   36    41     3 1
   37    41    34 1
   38    42     4 1
   39    42    35 1
   40    43    38 1
   41    44     5 1
   42    44    17 1
   43    44    39 1
   44    45    10 1
   45    45    18 1
   46    45    40 1
   47    46    19 1
   48    46    41 1
   49    47    14 1
   50    47    16 1
   51    47    42 1
   52    48    38 1
   53    49    48 1
   54    50    49 1
   55    51    50 1
   56    52    51 1
   57    53    51 1
   58    54    53 1
   59    55    54 1
   60    56    55 1
   61    57    56 1
   62    58    56 1
   63    59    58 1
   64    60    59 1
   65    61    60 1
   66    62    61 1
   67    63    61 1
   68    64    27 1
   69    64    46 1
   70    65     5 1
   71    65    10 1
   72    65    64 1
   73    65    14 1
   74    66    23 1
   75    67    23 1
   76    68    23 1
   77    69    22 1
   78    70    22 1
   79    71    22 1
   80    72    21 1
   81    73    21 1
   82    74    21 1
   83    75    20 1
   84    76    20 1
   85    77    20 1
   86    78    15 1
   87    79    15 1
   88    80    15 1
   89    81     8 1
   90    82     8 1
   91    83     8 1
   92    84     7 1
   93    85     7 1
   94    86     6 1
   95    87     6 1
   96    88     3 1
   97    89     3 1
   98    90     1 1
   99    91     1 1
  100    92    63 1
  101    93    63 1
  102    94    63 1
  103    95    62 1
  104    96    62 1
  105    97    62 1
  106    98    60 1
  107    99    60 1
  108   100    59 1
  109   101    59 1
  110   102    58 1
  111   103    58 1
  112   104    57 1
  113   105    57 1
  114   106    57 1
  115   107    55 1
  116   108    55 1
  117   109    54 1
  118   110    54 1
  119   111    53 1
  120   112    53 1
  121   113    19 1
  122   114    18 1
  123   115    17 1
  124   116     9 1
  125   117     2 1
  126   118    52 1
  127   119    52 1
  128   120    52 1
  129   121    51 1
  130   122    50 1
  131   123    50 1
  132   124    49 1
  133   125    49 1
  134   126    48 1
  135   127    48 1
  136   128    43 1
  137   129    43 1
  138   130    43 1
  139   131    39 1
  140   132    32 1
  141   133    31 1
  142   134    61 1
  143   135    56 1
  144   136    24 1
  145   137    24 1
  146   139   138 1
  147   140   139 1
  148   141   140 1
  149   142   140 1
  150   143   142 1
  151   144   138 1
  152   144   143 1
  153   145   144 1
  154   146   145 1
  155   147   146 1
  156   148   147 1
  157   149   148 1
  158   150   149 1
  159   151   150 1
  160   152   151 1
  161   153   152 1
  162   154   138 1
  163   155   138 1
  164   156   143 1
  165   157   147 1
  166   158   151 1
  167   160   159 1
  168   161   160 1
  169   162   161 1
  170   163   161 1
  171   164   163 1
  172   165   159 1
  173   165   164 1
  174   166   165 1
  175   167   166 1
  176   168   167 1
  177   169   168 1
  178   170   169 1
  179   171   170 1
  180   172   171 1
  181   173   172 1
  182   174   153 1
  183   174   173 1
  184   175   159 1
  185   176   159 1
  186   177   164 1
  187   178   168 1
  188   179   172 1
  189   180   179 1
  190   181   179 1
  191   182   179 1
  192   183   178 1
  193   184   178 1
  194   185   178 1
  195   186   177 1
  196   187   177 1
  197   188   177 1
  198   189   176 1
  199   190   176 1
  200   191   176 1
  201   192   175 1
  202   193   175 1
  203   194   175 1
  204   195   160 1
  205   196   160 1
  206   197   158 1
  207   198   158 1
  208   199   158 1
  209   200   157 1
  210   201   157 1
  211   202   157 1
  212   203   156 1
  213   204   156 1
  214   205   156 1
  215   206   155 1
  216   207   155 1
  217   208   155 1
  218   209   154 1
  219   210   154 1
  220   211   154 1
  221   212   141 1
  222   213   146 1
  223   214   145 1
  224   215   142 1
  225   216   142 1
  226   217   174 1
  227   218   173 1
  228   219   171 1
  229   220   170 1
  230   221   169 1
  231   222   140 1
  232   223   167 1
  233   224   166 1
  234   225   165 1
  235   226   163 1
  236   227   161 1
  237   228   139 1
  238   229   139 1
  239   230   153 1
  240   231   152 1
  241   232   150 1
  242   233   149 1
  243   234   148 1
  244   235   162 1
  245   65    153 1
  246   65    174 1
@<TRIPOS>SUBSTRUCTURE
      1 CLA               1 ****               0 ****  **** 
      2 LUT             138 ****               0 ****  **** 
