@<TRIPOS>MOLECULE
Cpptraj generated mol2 file.
  235   246     2     0     0
SMALL
USER_CHARGES


@<TRIPOS>ATOM
      1 CAA        77.4205   58.0450   35.3311 a2         1 CLA     -0.055900
      2 CAB        77.3417   62.3589   44.1958 c8         1 CLA     -0.148500
      3 CAC        70.4481   58.0731   43.8622 a2         1 CLA     -0.012600
      4 CAD        73.2236   55.6309   36.4365 ck         1 CLA      0.398800
      5 NA         76.3015   58.7312   38.7254 ns         1 CLA     -0.225500
      6 CBA        78.6893   57.9118   34.4933 a2         1 CLA     -0.135000
      7 CBB        78.4031   62.2117   45.0198 c0         1 CLA     -0.395200
      8 CBC        70.6345   56.5549   43.8850 a3         1 CLA     -0.037700
      9 CBD        74.7295   56.0224   36.3899 a1         1 CLA     -0.053900
     10 NB         76.1027   60.3952   41.2718 nm         1 CLA     -0.295700
     11 OBD        72.6594   54.8977   35.6669 o2         1 CLA     -0.494600
     12 CGA        79.1231   56.4995   34.1413 c4         1 CLA      0.827000
     13 CGD        75.6434   54.8216   36.4967 c4         1 CLA      0.655300
     14 ND         73.4503   57.8678   39.2510 nm         1 CLA     -0.291600
     15 CED        76.0611   52.6432   37.4692 a3         1 CLA      0.005400
     16 CHA        74.9870   57.0772   37.4137 cs         1 CLA     -0.123800
     17 CHB        78.1141   60.0289   39.8208 aa         1 CLA     -0.291900
     18 CHC        74.7537   60.6718   43.3162 aa         1 CLA     -0.090400
     19 CHD        71.6297   57.8335   40.7590 aa         1 CLA     -0.052000
     20 CMA        79.7431   57.6905   38.2488 a3         1 CLA     -0.230700
     21 CMB        79.5792   61.7834   41.9974 a3         1 CLA     -0.180800
     22 CMC        72.3807   60.2538   45.2514 a3         1 CLA     -0.134000
     23 CMD        70.3454   55.9355   38.5585 a3         1 CLA     -0.141100
     24 C1         79.7701   54.3592   34.8858 a2         1 CLA      0.023000
     25 C1A        76.1546   57.8256   37.6296 ac         1 CLA     -0.015100
     26 C1B        77.4354   60.6607   40.8623 cr         1 CLA      0.054700
     27 C1C        73.6023   59.9311   42.9147 cn         1 CLA     -0.005600
     28 C1D        72.1830   57.4734   39.5635 ap         1 CLA     -0.047300
     29 O1A        79.2095   56.0661   32.9676 o2         1 CLA     -0.610800
     30 O1D        76.6432   54.6122   35.8051 o2         1 CLA     -0.558200
     31 C2         79.9883   53.6106   36.2037 c8         1 CLA     -0.325100
     32 C2A        77.4931   57.6616   36.8644 a1         1 CLA      0.098600
     33 C2B        78.0600   61.3778   41.9402 cb         1 CLA      0.088500
     34 C2C        72.4976   59.6374   43.8259 cb         1 CLA      0.053700
     35 C2D        71.7054   56.5794   38.5375 cb         1 CLA      0.058900
     36 O2A        79.4007   55.7487   35.2298 o1         1 CLA     -0.437200
     37 O2D        75.2893   53.8833   37.4744 o1         1 CLA     -0.357600
     38 C3         81.1404   53.5113   36.9090 c5         1 CLA      0.031200
     39 C3A        78.5312   58.6250   37.6724 a1         1 CLA      0.166800
     40 C3B        77.1353   61.6131   42.9189 cb         1 CLA      0.035000
     41 C3C        71.6389   58.7243   43.1488 cb         1 CLA     -0.089900
     42 C3D        72.7344   56.3237   37.6905 cb         1 CLA     -0.035900
     43 C4         81.9923   52.3207   36.8349 a3         1 CLA     -0.053300
     44 C4A        77.5745   59.2472   38.7459 ac         1 CLA      0.001800
     45 C4B        75.8881   60.9002   42.5424 cn         1 CLA     -0.020900
     46 C4C        72.2410   58.4760   41.8808 cr         1 CLA     -0.044400
     47 C4D        73.8148   57.1410   38.1671 c6         1 CLA     -0.046000
     48 C5         81.1124   54.3004   38.2264 a2         1 CLA     -0.070400
     49 C6         82.3162   55.2808   38.4624 a2         1 CLA      0.043900
     50 C7         82.4075   55.5294   39.9822 a2         1 CLA     -0.150000
     51 C8         83.4402   56.6620   40.2211 a1         1 CLA      0.064200
     52 C9         84.8749   56.2952   39.7796 a3         1 CLA     -0.259300
     53 C10        83.4748   57.1098   41.7224 a2         1 CLA     -0.071900
     54 C11        82.3821   58.2745   41.9692 a2         1 CLA      0.014500
     55 C12        82.7324   58.8014   43.3608 a2         1 CLA     -0.112100
     56 C13        82.6480   57.8062   44.5946 a1         1 CLA      0.089200
     57 C14        81.0988   57.4283   44.7542 a3         1 CLA     -0.239100
     58 C15        83.1556   58.3901   45.9265 a2         1 CLA     -0.102200
     59 C16        82.5925   59.6619   46.3677 a2         1 CLA      0.023900
     60 C17        83.3344   60.2084   47.5557 a2         1 CLA     -0.105700
     61 C18        82.8799   61.6327   48.0317 a1         1 CLA      0.206800
     62 C19        81.3423   61.6798   48.2366 a3         1 CLA     -0.280100
     63 C20        83.6706   62.0493   49.2656 a3         1 CLA     -0.280100
     64 NC         73.4779   59.2385   41.7799 nx         1 CLA     -0.309200
     65 MG         74.7546   59.2031   40.1822 mg         1 CLA      0.895000
     66 HMD3       70.3506   54.9939   39.1793 dc         1 CLA      0.064300
     67 HMD2       69.6944   56.7354   38.9473 dc         1 CLA      0.064300
     68 HMD1       70.0664   55.7257   37.5605 dc         1 CLA      0.064300
     69 HMC3       73.0338   59.7008   45.8916 dc         1 CLA      0.052100
     70 HMC2       72.5722   61.3206   45.1956 dc         1 CLA      0.052100
     71 HMC1       71.4076   60.1225   45.7240 dc         1 CLA      0.052100
     72 HMB3       80.0886   60.8925   42.3131 dc         1 CLA      0.063600
     73 HMB2       79.8109   62.2260   41.0538 dc         1 CLA      0.063600
     74 HMB1       79.6979   62.6201   42.7061 dc         1 CLA      0.063600
     75 HMA3       79.3006   56.9652   38.9580 dc         1 CLA      0.058300
     76 HMA2       80.2138   57.2065   37.3682 dc         1 CLA      0.058300
     77 HMA1       80.3612   58.3377   38.9114 dc         1 CLA      0.058300
     78 HED3       76.2255   52.1534   36.5412 dc         1 CLA      0.079300
     79 HED2       77.0491   52.9627   37.8606 dc         1 CLA      0.079300
     80 HED1       75.7740   51.8822   38.2196 dc         1 CLA      0.079300
     81 HBC3       70.8599   56.0614   42.9428 dc         1 CLA      0.016300
     82 HBC2       71.2925   56.2183   44.6797 dc         1 CLA      0.016300
     83 HBC1       69.6358   56.1435   44.0608 dc         1 CLA      0.016300
     84 HBB2       78.3616   62.7053   45.9795 da         1 CLA      0.183000
     85 HBB1       79.2370   61.5587   44.9175 da         1 CLA      0.183000
     86 HBA2       78.5085   58.4752   33.5640 dc         1 CLA      0.029400
     87 HBA1       79.4949   58.3751   34.9619 dc         1 CLA      0.029400
     88 HAC2       70.3141   58.3433   44.8670 dc         1 CLA      0.029300
     89 HAC1       69.5060   58.3219   43.2324 dc         1 CLA      0.029300
     90 HAA2       76.6840   57.4519   34.7798 dc         1 CLA      0.028700
     91 HAA1       77.0195   59.0059   35.2111 dc         1 CLA      0.028700
     92 H203       83.5967   63.1177   49.5374 dc         1 CLA      0.065600
     93 H202       83.3926   61.5078   50.1590 dc         1 CLA      0.065600
     94 H201       84.6874   61.9704   48.9791 dc         1 CLA      0.065600
     95 H193       81.0197   60.8140   48.8621 dc         1 CLA      0.065600
     96 H192       81.0825   62.6424   48.6808 dc         1 CLA      0.065600
     97 H191       80.7963   61.7377   47.3286 dc         1 CLA      0.065600
     98 H172       83.3635   59.5196   48.3765 dc         1 CLA      0.027600
     99 H171       84.3651   60.3382   47.1647 dc         1 CLA      0.027600
    100 H162       82.8135   60.3177   45.5016 dc         1 CLA      0.002900
    101 H161       81.5722   59.5390   46.6120 dc         1 CLA      0.002900
    102 H152       82.8307   57.7106   46.6247 dc         1 CLA      0.029100
    103 H151       84.2121   58.4229   46.0113 dc         1 CLA      0.029100
    104 H143       80.4619   58.2939   44.7853 dc         1 CLA      0.063600
    105 H142       80.8797   56.8099   43.9187 dc         1 CLA      0.063600
    106 H141       80.9682   56.8751   45.6741 dc         1 CLA      0.063600
    107 H122       83.7410   59.1810   43.3344 dc         1 CLA      0.032500
    108 H121       82.0942   59.6526   43.4366 dc         1 CLA      0.032500
    109 H112       82.4409   59.0877   41.2146 dc         1 CLA      0.006600
    110 H111       81.4060   57.7752   41.9365 dc         1 CLA      0.006600
    111 H102       83.2539   56.2358   42.4046 dc         1 CLA      0.024100
    112 H101       84.4735   57.4937   42.0913 dc         1 CLA      0.024100
    113 HHD        70.6037   57.5636   41.0471 da         1 CLA      0.174300
    114 HHC        74.7445   61.1596   44.2845 da         1 CLA      0.136800
    115 HHB        79.1842   60.2847   39.8136 da         1 CLA      0.138300
    116 HBD        74.8938   56.5071   35.4964 dc         1 CLA      0.107700
    117 HAB        76.5257   63.0408   44.4454 da         1 CLA      0.155200
    118 H93        85.0267   55.2534   40.1577 dc         1 CLA      0.069500
    119 H92        84.8420   56.4442   38.6731 dc         1 CLA      0.069500
    120 H91        85.6528   56.9169   40.2958 dc         1 CLA      0.069500
    121 H8         83.2131   57.4653   39.5608 dc         1 CLA      0.029300
    122 H72        81.4618   55.9841   40.2362 dc         1 CLA      0.044400
    123 H71        82.5430   54.7404   40.6598 dc         1 CLA      0.044400
    124 H62        83.2688   54.8274   38.2239 dc         1 CLA      0.015600
    125 H61        82.2393   56.1652   37.8670 dc         1 CLA      0.015600
    126 H52        80.1732   54.8304   38.2689 dc         1 CLA      0.033200
    127 H51        80.9997   53.6035   39.0992 dc         1 CLA      0.033200
    128 H43        81.9147   51.8206   37.7507 dc         1 CLA      0.037000
    129 H42        81.6389   51.7563   35.9765 dc         1 CLA      0.037000
    130 H41        83.0314   52.6471   36.6124 dc         1 CLA      0.037000
    131 H3A        79.0216   59.3482   37.0123 dc         1 CLA      0.041100
    132 H2A        77.7374   56.6296   37.0372 dc         1 CLA      0.083100
    133 H2         79.1528   53.0165   36.4959 da         1 CLA      0.180900
    134 H18        83.1140   62.3936   47.3265 dc         1 CLA     -0.003900
    135 H13        83.3067   56.9963   44.3179 dc         1 CLA      0.019700
    136 H12        79.0662   53.8261   34.2267 dc         1 CLA      0.120400
    137 H11        80.6814   54.5682   34.3311 dc         1 CLA      0.120400
    138 C1         66.7946   61.5806   50.5702 Z1         2 LUT      0.509236
    139 C2         65.2875   61.5392   50.9975 Z2         2 LUT     -0.434695
    140 C3         64.5639   62.8575   51.1716 Z3         2 LUT      0.437453
    141 O3         64.5615   63.1294   52.5583 S1         2 LUT     -0.547129
    142 C4         65.3877   64.0021   50.4773 Z4         2 LUT     -0.468603
    143 C5         66.0959   63.5948   49.2778 Z5         2 LUT      0.279246
    144 C6         66.8840   62.4935   49.3351 Z6         2 LUT     -0.305473
    145 C7         67.3097   61.8091   48.0503 Z7         2 LUT      0.069402
    146 C8         68.1183   62.4602   47.1220 Z8         2 LUT     -0.191631
    147 C9         68.6119   62.0663   45.7997 Z9         2 LUT      0.196698
    148 C10        69.6138   62.8800   45.2493 Y1         2 LUT     -0.208611
    149 C11        70.3894   62.8655   44.0211 Y2         2 LUT      0.030784
    150 C12        71.5504   63.6007   43.8897 Y3         2 LUT     -0.220316
    151 C13        72.4267   63.4070   42.8264 Y4         2 LUT      0.215937
    152 C14        73.6183   63.9829   42.8845 Y5         2 LUT     -0.185793
    153 C15        74.6524   64.0130   41.8401 Y6         2 LUT     -0.057835
    154 C16        67.2044   60.1123   50.3609 Y7         2 LUT     -0.405615
    155 C17        67.7169   62.2087   51.6885 Y7         2 LUT     -0.405615
    156 C18        65.5236   64.2349   48.0497 Y9         2 LUT     -0.369639
    157 C19        68.0657   60.8358   45.0934 W1         2 LUT     -0.333362
    158 C20        71.7228   62.7711   41.5883 W2         2 LUT     -0.323439
    159 C21        86.0843   64.7863   35.9433 Z1         2 LUT      0.406104
    160 C22        86.7683   64.2287   34.7388 Z2         2 LUT     -0.404965
    161 C23        87.2234   65.3450   33.7522 Z3         2 LUT      0.391255
    162 O23        88.0804   64.7512   32.7378 S1         2 LUT     -0.528210
    163 C24        85.9988   66.2668   33.4580 W6         2 LUT     -0.258361
    164 C25        84.8327   66.3062   34.1064 Z5         2 LUT      0.133546
    165 C26        84.7062   65.4413   35.4253 W8         2 LUT     -0.147008
    166 C27        83.9055   66.1598   36.4610 Z7         2 LUT      0.023843
    167 C28        82.8248   65.6885   37.1311 Z8         2 LUT     -0.216987
    168 C29        82.1091   66.2263   38.3006 Z9         2 LUT      0.206524
    169 C30        81.0323   65.5173   38.7167 Y1         2 LUT     -0.215556
    170 C31        80.1588   65.8090   39.8388 Y2         2 LUT      0.025142
    171 C32        79.1080   64.9731   40.2070 Y3         2 LUT     -0.212209
    172 C33        78.2157   65.2054   41.3574 Y4         2 LUT      0.240937
    173 C34        77.0485   64.4987   41.2631 Y5         2 LUT     -0.218862
    174 C35        75.8958   64.5607   42.0812 Y6         2 LUT     -0.023547
    175 C36        87.0693   65.6987   36.7508 Y7         2 LUT     -0.393485
    176 C37        85.6929   63.5846   36.8698 Y7         2 LUT     -0.393485
    177 C38        83.8094   67.3605   33.6907 Y9         2 LUT     -0.387526
    178 C39        82.7229   67.4597   38.9550 W1         2 LUT     -0.322618
    179 C40        78.5005   66.3279   42.4014 W2         2 LUT     -0.358472
    180 H403       78.2532   66.0163   43.4219 R7         2 LUT      0.097720
    181 H402       79.5773   66.6689   42.4033 R7         2 LUT      0.097720
    182 H401       78.0053   67.2146   42.0962 R7         2 LUT      0.097720
    183 H393       83.5439   67.0612   39.5317 R4         2 LUT      0.082505
    184 H392       83.1382   68.1382   38.2845 R4         2 LUT      0.082505
    185 H391       82.0372   68.0270   39.5362 R4         2 LUT      0.082505
    186 H383       83.1023   66.9943   32.9388 R1         2 LUT      0.104030
    187 H382       83.2966   67.7306   34.5688 R1         2 LUT      0.104030
    188 H381       84.3872   68.2093   33.1327 R1         2 LUT      0.104030
    189 H373       85.4647   63.9559   37.8320 T4         2 LUT      0.089537
    190 H372       84.8934   63.0836   36.3975 T4         2 LUT      0.089537
    191 H371       86.4352   62.7762   37.0087 T4         2 LUT      0.089537
    192 H363       87.4439   66.6278   36.2623 T4         2 LUT      0.089537
    193 H362       86.6124   66.1183   37.6218 T4         2 LUT      0.089537
    194 H361       87.9639   65.1124   37.0424 T4         2 LUT      0.089537
    195 H222       87.6747   63.6193   34.9524 U2         2 LUT      0.127376
    196 H221       86.1308   63.6891   34.0999 U2         2 LUT      0.127376
    197 H203       72.2927   62.9201   40.6350 R7         2 LUT      0.087068
    198 H202       71.6530   61.6782   41.6199 R7         2 LUT      0.087068
    199 H201       70.7210   63.2100   41.5430 R7         2 LUT      0.087068
    200 H193       67.6989   60.1976   45.8985 R4         2 LUT      0.089716
    201 H192       67.2527   61.0329   44.3755 R4         2 LUT      0.089716
    202 H191       68.9762   60.3565   44.6787 R4         2 LUT      0.089716
    203 H183       66.0302   65.1191   47.6904 R1         2 LUT      0.094572
    204 H182       65.5453   63.5639   47.1734 R1         2 LUT      0.094572
    205 H181       64.4588   64.4346   48.1157 R1         2 LUT      0.094572
    206 H173       68.7155   62.5028   51.2857 T4         2 LUT      0.093752
    207 H172       67.3365   63.0395   52.2247 T4         2 LUT      0.093752
    208 H171       67.9688   61.4215   52.3674 T4         2 LUT      0.093752
    209 H163       67.1679   59.5164   51.2463 T4         2 LUT      0.093752
    210 H162       66.5009   59.4570   49.7825 T4         2 LUT      0.093752
    211 H161       68.1652   60.0486   49.9107 T4         2 LUT      0.093752
    212 HO3        63.9047   62.6596   53.1189 Q1         2 LUT      0.300121
    213 H8         68.4552   63.5070   47.2370 U7         2 LUT      0.080784
    214 H7         67.0153   60.7295   47.9399 U6         2 LUT      0.042190
    215 H42        64.6858   64.7757   50.2304 U5         2 LUT      0.145166
    216 H41        66.0742   64.4945   51.1078 U5         2 LUT      0.145166
    217 H35        75.9791   65.0718   42.9788 T3         2 LUT      0.077919
    218 H34        76.9780   63.8286   40.3788 T2         2 LUT      0.073626
    219 H32        78.8024   64.3368   39.4593 T1         2 LUT      0.092510
    220 H31        80.4328   66.5531   40.5233 U9         2 LUT      0.070048
    221 H30        80.8239   64.5835   38.2033 U8         2 LUT      0.085442
    222 H3         63.5660   62.7964   50.7540 U3         2 LUT     -0.031596
    223 H28        82.5369   64.7045   36.8523 U7         2 LUT      0.084728
    224 H27        84.3818   67.0393   36.7087 U6         2 LUT      0.087291
    225 H26        84.0822   64.6076   35.1133 Q6         2 LUT      0.075325
    226 H24        86.2289   67.0184   32.6846 Q5         2 LUT      0.094482
    227 H23        87.9942   65.9613   34.2763 U3         2 LUT     -0.024869
    228 H22        64.6667   60.9460   50.2914 U2         2 LUT      0.127376
    229 H21        65.1640   60.9069   51.8990 U2         2 LUT      0.127376
    230 H15        74.6863   63.3617   40.9846 T3         2 LUT      0.093200
    231 H14        73.7891   64.5618   43.8187 T2         2 LUT      0.068865
    232 H12        71.7306   64.2400   44.7308 T1         2 LUT      0.095507
    233 H11        70.2370   61.9641   43.3681 U9         2 LUT      0.068930
    234 H10        69.8390   63.6182   45.9689 U8         2 LUT      0.083911
    235 H1         87.4811   64.3879   32.0823 Q1         2 LUT      0.297311
@<TRIPOS>BOND
    1     6     1 1
    2     7     2 1
    3     8     3 1
    4     9     4 1
    5    11     4 1
    6    12     6 1
    7    13     9 1
    8    16     9 1
    9    25     5 1
   10    25    16 1
   11    26    10 1
   12    26    17 1
   13    27    18 1
   14    28    14 1
   15    28    19 1
   16    29    12 1
   17    30    13 1
   18    31    24 1
   19    32     1 1
   20    32    25 1
   21    33    21 1
   22    33    26 1
   23    34    22 1
   24    34    27 1
   25    35    23 1
   26    35    28 1
   27    36    12 1
   28    36    24 1
   29    37    13 1
   30    37    15 1
   31    38    31 1
   32    39    20 1
   33    39    32 1
   34    40     2 1
   35    40    33 1
   36    41     3 1
   37    41    34 1
   38    42     4 1
   39    42    35 1
   40    43    38 1
   41    44     5 1
   42    44    17 1
   43    44    39 1
   44    45    10 1
   45    45    18 1
   46    45    40 1
   47    46    19 1
   48    46    41 1
   49    47    14 1
   50    47    16 1
   51    47    42 1
   52    48    38 1
   53    49    48 1
   54    50    49 1
   55    51    50 1
   56    52    51 1
   57    53    51 1
   58    54    53 1
   59    55    54 1
   60    56    55 1
   61    57    56 1
   62    58    56 1
   63    59    58 1
   64    60    59 1
   65    61    60 1
   66    62    61 1
   67    63    61 1
   68    64    27 1
   69    64    46 1
   70    65     5 1
   71    65    10 1
   72    65    64 1
   73    65    14 1
   74    66    23 1
   75    67    23 1
   76    68    23 1
   77    69    22 1
   78    70    22 1
   79    71    22 1
   80    72    21 1
   81    73    21 1
   82    74    21 1
   83    75    20 1
   84    76    20 1
   85    77    20 1
   86    78    15 1
   87    79    15 1
   88    80    15 1
   89    81     8 1
   90    82     8 1
   91    83     8 1
   92    84     7 1
   93    85     7 1
   94    86     6 1
   95    87     6 1
   96    88     3 1
   97    89     3 1
   98    90     1 1
   99    91     1 1
  100    92    63 1
  101    93    63 1
  102    94    63 1
  103    95    62 1
  104    96    62 1
  105    97    62 1
  106    98    60 1
  107    99    60 1
  108   100    59 1
  109   101    59 1
  110   102    58 1
  111   103    58 1
  112   104    57 1
  113   105    57 1
  114   106    57 1
  115   107    55 1
  116   108    55 1
  117   109    54 1
  118   110    54 1
  119   111    53 1
  120   112    53 1
  121   113    19 1
  122   114    18 1
  123   115    17 1
  124   116     9 1
  125   117     2 1
  126   118    52 1
  127   119    52 1
  128   120    52 1
  129   121    51 1
  130   122    50 1
  131   123    50 1
  132   124    49 1
  133   125    49 1
  134   126    48 1
  135   127    48 1
  136   128    43 1
  137   129    43 1
  138   130    43 1
  139   131    39 1
  140   132    32 1
  141   133    31 1
  142   134    61 1
  143   135    56 1
  144   136    24 1
  145   137    24 1
  146   139   138 1
  147   140   139 1
  148   141   140 1
  149   142   140 1
  150   143   142 1
  151   144   138 1
  152   144   143 1
  153   145   144 1
  154   146   145 1
  155   147   146 1
  156   148   147 1
  157   149   148 1
  158   150   149 1
  159   151   150 1
  160   152   151 1
  161   153   152 1
  162   154   138 1
  163   155   138 1
  164   156   143 1
  165   157   147 1
  166   158   151 1
  167   160   159 1
  168   161   160 1
  169   162   161 1
  170   163   161 1
  171   164   163 1
  172   165   159 1
  173   165   164 1
  174   166   165 1
  175   167   166 1
  176   168   167 1
  177   169   168 1
  178   170   169 1
  179   171   170 1
  180   172   171 1
  181   173   172 1
  182   174   153 1
  183   174   173 1
  184   175   159 1
  185   176   159 1
  186   177   164 1
  187   178   168 1
  188   179   172 1
  189   180   179 1
  190   181   179 1
  191   182   179 1
  192   183   178 1
  193   184   178 1
  194   185   178 1
  195   186   177 1
  196   187   177 1
  197   188   177 1
  198   189   176 1
  199   190   176 1
  200   191   176 1
  201   192   175 1
  202   193   175 1
  203   194   175 1
  204   195   160 1
  205   196   160 1
  206   197   158 1
  207   198   158 1
  208   199   158 1
  209   200   157 1
  210   201   157 1
  211   202   157 1
  212   203   156 1
  213   204   156 1
  214   205   156 1
  215   206   155 1
  216   207   155 1
  217   208   155 1
  218   209   154 1
  219   210   154 1
  220   211   154 1
  221   212   141 1
  222   213   146 1
  223   214   145 1
  224   215   142 1
  225   216   142 1
  226   217   174 1
  227   218   173 1
  228   219   171 1
  229   220   170 1
  230   221   169 1
  231   222   140 1
  232   223   167 1
  233   224   166 1
  234   225   165 1
  235   226   163 1
  236   227   161 1
  237   228   139 1
  238   229   139 1
  239   230   153 1
  240   231   152 1
  241   232   150 1
  242   233   149 1
  243   234   148 1
  244   235   162 1
  245   65    153 1
  246   65    174 1
@<TRIPOS>SUBSTRUCTURE
      1 CLA               1 ****               0 ****  **** 
      2 LUT             138 ****               0 ****  **** 
