@<TRIPOS>MOLECULE
Cpptraj generated mol2 file.
  235   246     2     0     0
SMALL
USER_CHARGES


@<TRIPOS>ATOM
      1 CAA        78.3398   57.5745   34.6957 a2         1 CLA     -0.055900
      2 CAB        78.7842   61.6737   43.6634 c8         1 CLA     -0.148500
      3 CAC        71.6932   58.0294   43.6343 a2         1 CLA     -0.012600
      4 CAD        74.0047   55.2892   36.1041 ck         1 CLA      0.398800
      5 NA         77.3857   58.1822   38.2580 ns         1 CLA     -0.225500
      6 CBA        79.4575   56.9801   33.7922 a2         1 CLA     -0.135000
      7 CBB        80.0621   61.7092   44.1447 c0         1 CLA     -0.395200
      8 CBC        71.6497   56.5798   43.9252 a3         1 CLA     -0.037700
      9 CBD        75.5058   55.7506   35.8080 a1         1 CLA     -0.053900
     10 NB         77.3855   59.9316   40.6837 nm         1 CLA     -0.295700
     11 OBD        73.3471   54.5430   35.3576 o2         1 CLA     -0.494600
     12 CGA        79.6323   55.5244   33.5959 c4         1 CLA      0.827000
     13 CGD        76.2984   54.4091   35.7506 c4         1 CLA      0.655300
     14 ND         74.5145   57.4215   38.9040 nm         1 CLA     -0.291600
     15 CED        76.8242   52.4531   37.0004 a3         1 CLA      0.005400
     16 CHA        75.9576   56.7478   36.9550 cs         1 CLA     -0.123800
     17 CHB        79.2025   59.7112   39.0234 aa         1 CLA     -0.291900
     18 CHC        76.2516   60.0526   42.8546 aa         1 CLA     -0.090400
     19 CHD        72.7054   57.5468   40.5622 aa         1 CLA     -0.052000
     20 CMA        80.7739   57.1950   37.5400 a3         1 CLA     -0.230700
     21 CMB        80.4673   61.8880   40.7984 a3         1 CLA     -0.180800
     22 CMC        74.0951   59.5915   45.0859 a3         1 CLA     -0.134000
     23 CMD        71.2794   55.6949   38.3047 a3         1 CLA     -0.141100
     24 C1         80.4200   53.4989   34.7449 a2         1 CLA      0.023000
     25 C1A        77.2037   57.3589   37.1303 ac         1 CLA     -0.015100
     26 C1B        78.5722   60.2886   40.1590 cr         1 CLA      0.054700
     27 C1C        75.1106   59.3163   42.6518 cn         1 CLA     -0.005600
     28 C1D        73.2356   57.1210   39.3155 ap         1 CLA     -0.047300
     29 O1A        79.5430   54.9141   32.5546 o2         1 CLA     -0.610800
     30 O1D        77.1094   54.1097   34.9031 o2         1 CLA     -0.558200
     31 C2         81.1104   53.3179   36.0972 c8         1 CLA     -0.325100
     32 C2A        78.4216   57.2103   36.2655 a1         1 CLA      0.098600
     33 C2B        79.1732   61.2321   41.0864 cb         1 CLA      0.088500
     34 C2C        74.0059   59.1249   43.6774 cb         1 CLA      0.053700
     35 C2D        72.6635   56.2171   38.2567 cb         1 CLA      0.058900
     36 O2A        80.1135   54.9289   34.7421 o1         1 CLA     -0.437200
     37 O2D        76.1280   53.7183   36.9358 o1         1 CLA     -0.357600
     38 C3         81.7879   52.2143   36.4966 c5         1 CLA      0.031200
     39 C3A        79.4852   57.9546   37.1155 a1         1 CLA      0.166800
     40 C3B        78.4420   61.1567   42.3056 cb         1 CLA      0.035000
     41 C3C        72.9637   58.4871   42.9775 cb         1 CLA     -0.089900
     42 C3D        73.6934   56.0283   37.3890 cb         1 CLA     -0.035900
     43 C4         81.1705   51.0873   37.3682 a3         1 CLA     -0.053300
     44 C4A        78.7430   58.6045   38.2531 ac         1 CLA      0.001800
     45 C4B        77.3079   60.3703   41.9499 cn         1 CLA     -0.020900
     46 C4C        73.4142   58.3105   41.5908 cr         1 CLA     -0.044400
     47 C4D        74.7923   56.8170   37.7827 c6         1 CLA     -0.046000
     48 C5         83.3290   52.2495   36.3030 a2         1 CLA     -0.070400
     49 C6         84.1662   53.4419   36.8804 a2         1 CLA      0.043900
     50 C7         83.9474   53.7924   38.3363 a2         1 CLA     -0.150000
     51 C8         84.9757   54.6055   39.1018 a1         1 CLA      0.064200
     52 C9         86.3867   53.8959   39.1126 a3         1 CLA     -0.259300
     53 C10        84.4786   54.9405   40.6019 a2         1 CLA     -0.071900
     54 C11        83.1206   55.5767   40.7782 a2         1 CLA      0.014500
     55 C12        82.9343   56.1971   42.1417 a2         1 CLA     -0.112100
     56 C13        81.4949   56.8531   42.3798 a1         1 CLA      0.089200
     57 C14        81.1806   57.9882   41.3335 a3         1 CLA     -0.239100
     58 C15        81.4390   57.3351   43.8044 a2         1 CLA     -0.102200
     59 C16        82.4005   58.4917   44.0905 a2         1 CLA      0.023900
     60 C17        82.1151   59.0860   45.4729 a2         1 CLA     -0.105700
     61 C18        82.9790   60.2872   46.0317 a1         1 CLA      0.206800
     62 C19        82.5127   60.8121   47.4658 a3         1 CLA     -0.280100
     63 C20        84.5122   60.0283   46.1407 a3         1 CLA     -0.280100
     64 NC         74.7148   58.8672   41.3967 nx         1 CLA     -0.309200
     65 MG         75.9251   58.7296   39.6834 mg         1 CLA      0.895000
     66 HMD3       71.2598   54.8067   38.9168 dc         1 CLA      0.064300
     67 HMD2       70.5782   56.3792   38.7027 dc         1 CLA      0.064300
     68 HMD1       70.9081   55.5376   37.2867 dc         1 CLA      0.064300
     69 HMC3       75.1026   59.9375   45.3144 dc         1 CLA      0.052100
     70 HMC2       73.3398   60.4199   45.2366 dc         1 CLA      0.052100
     71 HMC1       73.8012   58.7541   45.7487 dc         1 CLA      0.052100
     72 HMB3       80.5193   62.7486   41.3941 dc         1 CLA      0.063600
     73 HMB2       81.2303   61.1487   40.9705 dc         1 CLA      0.063600
     74 HMB1       80.4739   62.2502   39.8036 dc         1 CLA      0.063600
     75 HMA3       81.3570   57.8787   38.1337 dc         1 CLA      0.058300
     76 HMA2       80.4845   56.2861   38.1671 dc         1 CLA      0.058300
     77 HMA1       81.2607   56.8879   36.6370 dc         1 CLA      0.058300
     78 HED3       76.3831   51.7595   37.7666 dc         1 CLA      0.079300
     79 HED2       76.7261   51.8802   36.0864 dc         1 CLA      0.079300
     80 HED1       77.8873   52.6172   37.2532 dc         1 CLA      0.079300
     81 HBC3       71.6899   55.9609   43.0452 dc         1 CLA      0.016300
     82 HBC2       72.4902   56.4011   44.5731 dc         1 CLA      0.016300
     83 HBC1       70.7739   56.2778   44.5610 dc         1 CLA      0.016300
     84 HBB2       80.2984   62.1977   45.1063 da         1 CLA      0.183000
     85 HBB1       80.8907   61.3855   43.4436 da         1 CLA      0.183000
     86 HBA2       79.3543   57.2692   32.7650 dc         1 CLA      0.029400
     87 HBA1       80.4182   57.4746   34.0284 dc         1 CLA      0.029400
     88 HAC2       71.5616   58.4587   44.6725 dc         1 CLA      0.029300
     89 HAC1       70.8078   58.2939   43.0725 dc         1 CLA      0.029300
     90 HAA2       77.4246   57.1670   34.3430 dc         1 CLA      0.028700
     91 HAA1       78.2482   58.6509   34.5193 dc         1 CLA      0.028700
     92 H203       84.8922   59.8500   45.1431 dc         1 CLA      0.065600
     93 H202       84.9938   60.8958   46.5410 dc         1 CLA      0.065600
     94 H201       84.7723   59.2711   46.8705 dc         1 CLA      0.065600
     95 H193       81.4375   60.9033   47.5242 dc         1 CLA      0.065600
     96 H192       82.8851   59.9782   48.1029 dc         1 CLA      0.065600
     97 H191       83.0546   61.7297   47.6710 dc         1 CLA      0.065600
     98 H172       81.0915   59.4969   45.7001 dc         1 CLA      0.027600
     99 H171       82.1240   58.2962   46.1946 dc         1 CLA      0.027600
    100 H162       83.4512   58.1653   44.1368 dc         1 CLA      0.002900
    101 H161       82.2943   59.3775   43.4690 dc         1 CLA      0.002900
    102 H152       80.3461   57.6314   43.8958 dc         1 CLA      0.029100
    103 H151       81.7270   56.5609   44.5561 dc         1 CLA      0.029100
    104 H143       80.7548   57.5600   40.3866 dc         1 CLA      0.063600
    105 H142       80.4464   58.6342   41.6942 dc         1 CLA      0.063600
    106 H141       82.0225   58.5519   40.9299 dc         1 CLA      0.063600
    107 H122       83.2285   55.4758   42.9700 dc         1 CLA      0.032500
    108 H121       83.6700   56.9236   42.3191 dc         1 CLA      0.032500
    109 H112       83.0399   56.2998   40.0033 dc         1 CLA      0.006600
    110 H111       82.3948   54.7940   40.6817 dc         1 CLA      0.006600
    111 H102       84.4019   54.1049   41.2964 dc         1 CLA      0.024100
    112 H101       85.2890   55.5128   40.9497 dc         1 CLA      0.024100
    113 HHD        71.6732   57.2179   40.8144 da         1 CLA      0.174300
    114 HHC        76.4034   60.3919   43.8884 da         1 CLA      0.136800
    115 HHB        80.2100   60.0642   38.8217 da         1 CLA      0.138300
    116 HBD        75.5455   56.3048   34.9072 dc         1 CLA      0.107700
    117 HAB        77.9620   62.0032   44.2630 da         1 CLA      0.155200
    118 H93        86.3293   52.8877   39.3681 dc         1 CLA      0.069500
    119 H92        86.7042   53.8401   38.0399 dc         1 CLA      0.069500
    120 H91        87.1392   54.4992   39.6827 dc         1 CLA      0.069500
    121 H8         85.0449   55.5323   38.5544 dc         1 CLA      0.029300
    122 H72        82.9602   54.2477   38.4070 dc         1 CLA      0.044400
    123 H71        83.8380   52.8865   38.8517 dc         1 CLA      0.044400
    124 H62        85.2091   53.2757   36.7489 dc         1 CLA      0.015600
    125 H61        83.8158   54.3089   36.2983 dc         1 CLA      0.015600
    126 H52        83.7654   51.4337   36.8845 dc         1 CLA      0.033200
    127 H51        83.5324   52.1960   35.2228 dc         1 CLA      0.033200
    128 H43        81.3338   51.4160   38.4267 dc         1 CLA      0.037000
    129 H42        80.1278   51.2083   37.1174 dc         1 CLA      0.037000
    130 H41        81.4969   50.0791   37.0621 dc         1 CLA      0.037000
    131 H3A        79.7415   58.8533   36.5733 dc         1 CLA      0.041100
    132 H2A        78.6721   56.1401   36.3635 dc         1 CLA      0.083100
    133 H2         81.1090   54.2083   36.7130 da         1 CLA      0.180900
    134 H18        82.7420   60.9770   45.2708 dc         1 CLA     -0.003900
    135 H13        80.7166   56.1106   42.2622 dc         1 CLA      0.019700
    136 H12        79.4958   52.8966   34.5690 dc         1 CLA      0.120400
    137 H11        81.2084   53.2424   34.0876 dc         1 CLA      0.120400
    138 C1         67.7452   61.1241   49.7054 Z1         2 LUT      0.509236
    139 C2         66.4167   60.9508   50.4610 Z2         2 LUT     -0.434695
    140 C3         65.4309   62.1266   50.6895 Z3         2 LUT      0.437453
    141 O3         65.4008   62.3168   52.1535 S1         2 LUT     -0.547129
    142 C4         65.8655   63.2906   49.7937 Z4         2 LUT     -0.468603
    143 C5         66.4890   62.9275   48.5047 Z5         2 LUT      0.279246
    144 C6         67.5116   61.9878   48.4422 Z6         2 LUT     -0.305473
    145 C7         68.0276   61.4452   47.2502 Z7         2 LUT      0.069402
    146 C8         69.1867   61.8110   46.6239 Z8         2 LUT     -0.191631
    147 C9         69.6598   61.3628   45.2705 Z9         2 LUT      0.196698
    148 C10        70.6910   62.0899   44.7344 Y1         2 LUT     -0.208611
    149 C11        71.4153   62.0035   43.5183 Y2         2 LUT      0.030784
    150 C12        72.6055   62.6669   43.3593 Y3         2 LUT     -0.220316
    151 C13        73.4820   62.6393   42.1964 Y4         2 LUT      0.215937
    152 C14        74.6386   63.3878   42.2706 Y5         2 LUT     -0.185793
    153 C15        75.8526   63.4513   41.3884 Y6         2 LUT     -0.057835
    154 C16        68.3828   59.7044   49.3465 Y7         2 LUT     -0.405615
    155 C17        68.7763   61.8391   50.6429 Y7         2 LUT     -0.405615
    156 C18        66.0457   63.7996   47.3011 Y9         2 LUT     -0.369639
    157 C19        69.0134   60.2572   44.4985 W1         2 LUT     -0.333362
    158 C20        73.0730   62.1204   40.8613 W2         2 LUT     -0.323439
    159 C21        87.0648   64.1756   35.4799 Z1         2 LUT      0.406104
    160 C22        87.8506   63.5702   34.2275 Z2         2 LUT     -0.404965
    161 C23        88.0881   64.5582   33.2036 Z3         2 LUT      0.391255
    162 O23        89.0019   63.9745   32.2739 S1         2 LUT     -0.528210
    163 C24        86.8574   65.2910   32.7630 W6         2 LUT     -0.258361
    164 C25        85.7672   65.4786   33.5638 Z5         2 LUT      0.133546
    165 C26        85.6859   64.8498   34.9776 W8         2 LUT     -0.147008
    166 C27        84.9546   65.7003   35.9511 Z7         2 LUT      0.023843
    167 C28        83.8796   65.2113   36.6725 Z8         2 LUT     -0.216987
    168 C29        83.2265   65.8667   37.7875 Z9         2 LUT      0.206524
    169 C30        82.1740   65.1987   38.3156 Y1         2 LUT     -0.215556
    170 C31        81.3371   65.6220   39.4153 Y2         2 LUT      0.025142
    171 C32        80.1623   64.9942   39.7002 Y3         2 LUT     -0.212209
    172 C33        79.0962   65.2404   40.7019 Y4         2 LUT      0.240937
    173 C34        78.0210   64.3312   40.7769 Y5         2 LUT     -0.218862
    174 C35        76.8410   64.3948   41.5602 Y6         2 LUT     -0.023547
    175 C36        87.9935   65.2608   36.1632 Y7         2 LUT     -0.393485
    176 C37        86.8382   63.1289   36.5435 Y7         2 LUT     -0.393485
    177 C38        84.6018   66.3187   33.0689 Y9         2 LUT     -0.387526
    178 C39        83.6873   67.1370   38.3701 W1         2 LUT     -0.322618
    179 C40        79.2989   66.1375   41.9107 W2         2 LUT     -0.358472
    180 H403       78.8695   65.6887   42.7999 R7         2 LUT      0.097720
    181 H402       80.3476   66.3493   42.1567 R7         2 LUT      0.097720
    182 H401       78.8059   67.0667   41.7143 R7         2 LUT      0.097720
    183 H393       84.1525   67.7206   37.5570 R4         2 LUT      0.082505
    184 H392       82.9596   67.7902   38.7209 R4         2 LUT      0.082505
    185 H391       84.4264   66.9565   39.1441 R4         2 LUT      0.082505
    186 H383       84.9272   67.0443   32.2403 R1         2 LUT      0.104030
    187 H382       83.9953   65.6087   32.5908 R1         2 LUT      0.104030
    188 H381       84.0039   66.8761   33.7793 R1         2 LUT      0.104030
    189 H373       86.2171   62.3490   36.1340 T4         2 LUT      0.089537
    190 H372       87.7802   62.6268   36.8767 T4         2 LUT      0.089537
    191 H371       86.4240   63.5784   37.4405 T4         2 LUT      0.089537
    192 H363       88.9973   64.9622   36.4054 T4         2 LUT      0.089537
    193 H362       88.1714   66.0807   35.4703 T4         2 LUT      0.089537
    194 H361       87.5252   65.6286   37.0994 T4         2 LUT      0.089537
    195 H222       88.7306   63.0080   34.5949 U2         2 LUT      0.127376
    196 H221       87.2479   62.9184   33.6484 U2         2 LUT      0.127376
    197 H203       72.0171   62.0743   40.8282 R7         2 LUT      0.087068
    198 H202       73.4127   62.7599   40.0805 R7         2 LUT      0.087068
    199 H201       73.5043   61.1401   40.6838 R7         2 LUT      0.087068
    200 H193       67.9044   60.3359   44.5229 R4         2 LUT      0.089716
    201 H192       69.2938   60.2112   43.4694 R4         2 LUT      0.089716
    202 H191       69.3410   59.3439   44.9691 R4         2 LUT      0.089716
    203 H183       66.8527   63.9653   46.5967 R1         2 LUT      0.094572
    204 H182       65.1160   63.6026   46.7567 R1         2 LUT      0.094572
    205 H181       65.8542   64.7314   47.8091 R1         2 LUT      0.094572
    206 H173       69.1093   61.2083   51.4831 T4         2 LUT      0.093752
    207 H172       69.6074   62.0918   50.0677 T4         2 LUT      0.093752
    208 H171       68.2766   62.7484   50.9856 T4         2 LUT      0.093752
    209 H163       68.6245   59.1011   50.2087 T4         2 LUT      0.093752
    210 H162       67.6259   59.1790   48.8417 T4         2 LUT      0.093752
    211 H161       69.3204   59.8642   48.7649 T4         2 LUT      0.093752
    212 HO3        66.1580   62.8670   52.3903 Q1         2 LUT      0.300121
    213 H8         69.7470   62.5596   47.1293 U7         2 LUT      0.080784
    214 H7         67.4030   60.5827   46.8707 U6         2 LUT      0.042190
    215 H42        64.9018   63.7571   49.5766 U5         2 LUT      0.145166
    216 H41        66.4385   64.1194   50.3070 U5         2 LUT      0.145166
    217 H35        76.7884   65.1413   42.3162 T3         2 LUT      0.077919
    218 H34        78.0365   63.5535   39.9921 T2         2 LUT      0.073626
    219 H32        79.9435   64.1794   38.9525 T1         2 LUT      0.092510
    220 H31        81.5802   66.4492   40.0588 U9         2 LUT      0.070048
    221 H30        81.8343   64.2606   37.8490 U8         2 LUT      0.085442
    222 H3         64.3985   61.8076   50.4305 U3         2 LUT     -0.031596
    223 H28        83.4146   64.3047   36.2474 U7         2 LUT      0.084728
    224 H27        85.4558   66.6010   36.3666 U6         2 LUT      0.087291
    225 H26        85.0703   63.9946   34.6714 Q6         2 LUT      0.075325
    226 H24        86.9461   65.6588   31.7213 Q5         2 LUT      0.094482
    227 H23        88.7044   65.3299   33.6854 U3         2 LUT     -0.024869
    228 H22        65.8163   60.3340   49.8394 U2         2 LUT      0.127376
    229 H21        66.5797   60.4208   51.3742 U2         2 LUT      0.127376
    230 H15        75.9807   62.6840   40.6354 T3         2 LUT      0.093200
    231 H14        74.7819   64.0088   43.1501 T2         2 LUT      0.068865
    232 H12        72.9442   63.2908   44.2730 T1         2 LUT      0.095507
    233 H11        71.0701   61.4080   42.6808 U9         2 LUT      0.068930
    234 H10        71.1239   62.8400   45.3750 U8         2 LUT      0.083911
    235 H1         88.5245   63.6652   31.4480 Q1         2 LUT      0.297311
@<TRIPOS>BOND
    1     6     1 1
    2     7     2 1
    3     8     3 1
    4     9     4 1
    5    11     4 1
    6    12     6 1
    7    13     9 1
    8    16     9 1
    9    25     5 1
   10    25    16 1
   11    26    10 1
   12    26    17 1
   13    27    18 1
   14    28    14 1
   15    28    19 1
   16    29    12 1
   17    30    13 1
   18    31    24 1
   19    32     1 1
   20    32    25 1
   21    33    21 1
   22    33    26 1
   23    34    22 1
   24    34    27 1
   25    35    23 1
   26    35    28 1
   27    36    12 1
   28    36    24 1
   29    37    13 1
   30    37    15 1
   31    38    31 1
   32    39    20 1
   33    39    32 1
   34    40     2 1
   35    40    33 1
   36    41     3 1
   37    41    34 1
   38    42     4 1
   39    42    35 1
   40    43    38 1
   41    44     5 1
   42    44    17 1
   43    44    39 1
   44    45    10 1
   45    45    18 1
   46    45    40 1
   47    46    19 1
   48    46    41 1
   49    47    14 1
   50    47    16 1
   51    47    42 1
   52    48    38 1
   53    49    48 1
   54    50    49 1
   55    51    50 1
   56    52    51 1
   57    53    51 1
   58    54    53 1
   59    55    54 1
   60    56    55 1
   61    57    56 1
   62    58    56 1
   63    59    58 1
   64    60    59 1
   65    61    60 1
   66    62    61 1
   67    63    61 1
   68    64    27 1
   69    64    46 1
   70    65     5 1
   71    65    10 1
   72    65    64 1
   73    65    14 1
   74    66    23 1
   75    67    23 1
   76    68    23 1
   77    69    22 1
   78    70    22 1
   79    71    22 1
   80    72    21 1
   81    73    21 1
   82    74    21 1
   83    75    20 1
   84    76    20 1
   85    77    20 1
   86    78    15 1
   87    79    15 1
   88    80    15 1
   89    81     8 1
   90    82     8 1
   91    83     8 1
   92    84     7 1
   93    85     7 1
   94    86     6 1
   95    87     6 1
   96    88     3 1
   97    89     3 1
   98    90     1 1
   99    91     1 1
  100    92    63 1
  101    93    63 1
  102    94    63 1
  103    95    62 1
  104    96    62 1
  105    97    62 1
  106    98    60 1
  107    99    60 1
  108   100    59 1
  109   101    59 1
  110   102    58 1
  111   103    58 1
  112   104    57 1
  113   105    57 1
  114   106    57 1
  115   107    55 1
  116   108    55 1
  117   109    54 1
  118   110    54 1
  119   111    53 1
  120   112    53 1
  121   113    19 1
  122   114    18 1
  123   115    17 1
  124   116     9 1
  125   117     2 1
  126   118    52 1
  127   119    52 1
  128   120    52 1
  129   121    51 1
  130   122    50 1
  131   123    50 1
  132   124    49 1
  133   125    49 1
  134   126    48 1
  135   127    48 1
  136   128    43 1
  137   129    43 1
  138   130    43 1
  139   131    39 1
  140   132    32 1
  141   133    31 1
  142   134    61 1
  143   135    56 1
  144   136    24 1
  145   137    24 1
  146   139   138 1
  147   140   139 1
  148   141   140 1
  149   142   140 1
  150   143   142 1
  151   144   138 1
  152   144   143 1
  153   145   144 1
  154   146   145 1
  155   147   146 1
  156   148   147 1
  157   149   148 1
  158   150   149 1
  159   151   150 1
  160   152   151 1
  161   153   152 1
  162   154   138 1
  163   155   138 1
  164   156   143 1
  165   157   147 1
  166   158   151 1
  167   160   159 1
  168   161   160 1
  169   162   161 1
  170   163   161 1
  171   164   163 1
  172   165   159 1
  173   165   164 1
  174   166   165 1
  175   167   166 1
  176   168   167 1
  177   169   168 1
  178   170   169 1
  179   171   170 1
  180   172   171 1
  181   173   172 1
  182   174   153 1
  183   174   173 1
  184   175   159 1
  185   176   159 1
  186   177   164 1
  187   178   168 1
  188   179   172 1
  189   180   179 1
  190   181   179 1
  191   182   179 1
  192   183   178 1
  193   184   178 1
  194   185   178 1
  195   186   177 1
  196   187   177 1
  197   188   177 1
  198   189   176 1
  199   190   176 1
  200   191   176 1
  201   192   175 1
  202   193   175 1
  203   194   175 1
  204   195   160 1
  205   196   160 1
  206   197   158 1
  207   198   158 1
  208   199   158 1
  209   200   157 1
  210   201   157 1
  211   202   157 1
  212   203   156 1
  213   204   156 1
  214   205   156 1
  215   206   155 1
  216   207   155 1
  217   208   155 1
  218   209   154 1
  219   210   154 1
  220   211   154 1
  221   212   141 1
  222   213   146 1
  223   214   145 1
  224   215   142 1
  225   216   142 1
  226   217   174 1
  227   218   173 1
  228   219   171 1
  229   220   170 1
  230   221   169 1
  231   222   140 1
  232   223   167 1
  233   224   166 1
  234   225   165 1
  235   226   163 1
  236   227   161 1
  237   228   139 1
  238   229   139 1
  239   230   153 1
  240   231   152 1
  241   232   150 1
  242   233   149 1
  243   234   148 1
  244   235   162 1
  245   65    153 1
  246   65    174 1
@<TRIPOS>SUBSTRUCTURE
      1 CLA               1 ****               0 ****  **** 
      2 LUT             138 ****               0 ****  **** 
