@<TRIPOS>MOLECULE
Cpptraj generated mol2 file.
  235   246     2     0     0
SMALL
USER_CHARGES


@<TRIPOS>ATOM
      1 CAA        79.5699   58.4499   35.4009 a2         1 CLA     -0.055900
      2 CAB        79.2274   61.7016   44.6604 c8         1 CLA     -0.148500
      3 CAC        72.2917   57.8676   43.6487 a2         1 CLA     -0.012600
      4 CAD        75.3203   55.5523   36.5610 ck         1 CLA      0.398800
      5 NA         78.3104   58.6963   38.7484 ns         1 CLA     -0.225500
      6 CBA        80.9223   58.4727   34.5991 a2         1 CLA     -0.135000
      7 CBB        80.4218   61.8907   45.3486 c0         1 CLA     -0.395200
      8 CBC        72.2516   56.2623   43.5354 a3         1 CLA     -0.037700
      9 CBD        76.8052   56.1445   36.3149 a1         1 CLA     -0.053900
     10 NB         78.0541   60.1701   41.3854 nm         1 CLA     -0.295700
     11 OBD        74.7881   54.7204   35.8873 o2         1 CLA     -0.494600
     12 CGA        81.3439   57.0999   34.0170 c4         1 CLA      0.827000
     13 CGD        77.8249   55.0680   36.3275 c4         1 CLA      0.655300
     14 ND         75.4597   57.8015   39.2087 nm         1 CLA     -0.291600
     15 CED        79.0604   53.5702   37.9062 a3         1 CLA      0.005400
     16 CHA        77.0424   57.2316   37.3723 cs         1 CLA     -0.123800
     17 CHB        80.1083   60.0377   39.9779 aa         1 CLA     -0.291900
     18 CHC        76.7062   60.4164   43.4264 aa         1 CLA     -0.090400
     19 CHD        73.6266   57.6311   40.7908 aa         1 CLA     -0.052000
     20 CMA        81.9594   58.1481   38.2925 a3         1 CLA     -0.230700
     21 CMB        81.3058   62.0623   42.1895 a3         1 CLA     -0.180800
     22 CMC        74.3590   59.6609   45.3860 a3         1 CLA     -0.134000
     23 CMD        72.6466   55.3686   38.8076 a3         1 CLA     -0.141100
     24 C1         81.7832   54.8990   34.7944 a2         1 CLA      0.023000
     25 C1A        78.2469   57.9061   37.6492 ac         1 CLA     -0.015100
     26 C1B        79.4055   60.4808   41.1102 cr         1 CLA      0.054700
     27 C1C        75.5716   59.7408   42.9938 cn         1 CLA     -0.005600
     28 C1D        74.2564   57.2983   39.5912 ap         1 CLA     -0.047300
     29 O1A        81.1736   56.7543   32.8517 o2         1 CLA     -0.610800
     30 O1D        78.4479   54.5813   35.3660 o2         1 CLA     -0.558200
     31 C2         82.6747   54.2089   35.7551 c8         1 CLA     -0.325100
     32 C2A        79.6552   57.8942   36.9013 a1         1 CLA      0.098600
     33 C2B        79.9900   61.3163   42.1931 cb         1 CLA      0.088500
     34 C2C        74.4186   59.3686   43.8806 cb         1 CLA      0.053700
     35 C2D        73.8356   56.2698   38.6668 cb         1 CLA      0.058900
     36 O2A        81.7673   56.3416   35.0628 o1         1 CLA     -0.437200
     37 O2D        78.0140   54.5749   37.5542 o1         1 CLA     -0.357600
     38 C3         83.9859   53.9232   35.5264 c5         1 CLA      0.031200
     39 C3A        80.5993   58.8070   37.8151 a1         1 CLA      0.166800
     40 C3B        79.1267   61.1914   43.2589 cb         1 CLA      0.035000
     41 C3C        73.5565   58.5539   43.1592 cb         1 CLA     -0.089900
     42 C3D        74.8740   56.2517   37.6969 cb         1 CLA     -0.035900
     43 C4         84.5274   52.7128   34.7598 a3         1 CLA     -0.053300
     44 C4A        79.6375   59.2258   38.9142 ac         1 CLA      0.001800
     45 C4B        77.8848   60.5777   42.7101 cn         1 CLA     -0.020900
     46 C4C        74.1385   58.4785   41.7943 cr         1 CLA     -0.044400
     47 C4D        75.8649   57.1576   38.0810 c6         1 CLA     -0.046000
     48 C5         85.0865   54.6555   36.2093 a2         1 CLA     -0.070400
     49 C6         85.1122   54.3737   37.7044 a2         1 CLA      0.043900
     50 C7         86.3376   54.8627   38.4781 a2         1 CLA     -0.150000
     51 C8         86.1636   55.7132   39.7424 a1         1 CLA      0.064200
     52 C9         85.6765   57.1642   39.3474 a3         1 CLA     -0.259300
     53 C10        87.4336   55.9786   40.6113 a2         1 CLA     -0.071900
     54 C11        86.9896   56.7931   41.8948 a2         1 CLA      0.014500
     55 C12        88.1570   56.7070   42.9114 a2         1 CLA     -0.112100
     56 C13        88.0800   57.7068   44.1085 a1         1 CLA      0.089200
     57 C14        89.4369   57.5753   44.8885 a3         1 CLA     -0.239100
     58 C15        86.7754   57.5974   44.9299 a2         1 CLA     -0.102200
     59 C16        86.6836   58.4329   46.2193 a2         1 CLA      0.023900
     60 C17        85.2154   58.4129   46.7009 a2         1 CLA     -0.105700
     61 C18        84.9163   58.8227   48.2290 a1         1 CLA      0.206800
     62 C19        83.4201   58.9062   48.4073 a3         1 CLA     -0.280100
     63 C20        85.5227   57.8566   49.2903 a3         1 CLA     -0.280100
     64 NC         75.3058   59.2341   41.7358 nx         1 CLA     -0.309200
     65 MG         76.7356   59.1455   40.2350 mg         1 CLA      0.895000
     66 HMD3       71.8871   55.9140   38.1960 dc         1 CLA      0.064300
     67 HMD2       72.7693   54.3941   38.3314 dc         1 CLA      0.064300
     68 HMD1       72.2936   55.1923   39.8306 dc         1 CLA      0.064300
     69 HMC3       73.3283   59.8630   45.8189 dc         1 CLA      0.052100
     70 HMC2       74.7939   58.7455   45.8595 dc         1 CLA      0.052100
     71 HMC1       75.0852   60.4644   45.6129 dc         1 CLA      0.052100
     72 HMB3       81.5655   62.0796   41.1142 dc         1 CLA      0.063600
     73 HMB2       81.2249   63.0798   42.4473 dc         1 CLA      0.063600
     74 HMB1       81.9313   61.4730   42.7925 dc         1 CLA      0.063600
     75 HMA3       82.4669   58.8635   38.8362 dc         1 CLA      0.058300
     76 HMA2       81.7574   57.1702   38.7272 dc         1 CLA      0.058300
     77 HMA1       82.4120   57.9255   37.3247 dc         1 CLA      0.058300
     78 HED3       78.9859   52.6251   37.3715 dc         1 CLA      0.079300
     79 HED2       80.0939   53.9374   37.7711 dc         1 CLA      0.079300
     80 HED1       78.9681   53.4380   38.9580 dc         1 CLA      0.079300
     81 HBC3       73.1754   55.8254   43.1468 dc         1 CLA      0.016300
     82 HBC2       72.1122   55.8870   44.5497 dc         1 CLA      0.016300
     83 HBC1       71.4749   56.1029   42.8641 dc         1 CLA      0.016300
     84 HBB2       80.5206   62.2810   46.3742 da         1 CLA      0.183000
     85 HBB1       81.3354   61.5229   44.8864 da         1 CLA      0.183000
     86 HBA2       80.7215   59.1101   33.7677 dc         1 CLA      0.029400
     87 HBA1       81.7440   58.8743   35.1510 dc         1 CLA      0.029400
     88 HAC2       72.2089   57.9270   44.7092 dc         1 CLA      0.029300
     89 HAC1       71.3977   58.2893   43.2604 dc         1 CLA      0.029300
     90 HAA2       78.8710   57.9264   34.6808 dc         1 CLA      0.028700
     91 HAA1       79.3305   59.4549   35.4562 dc         1 CLA      0.028700
     92 H203       85.1109   56.8704   49.4583 dc         1 CLA      0.065600
     93 H202       86.6236   57.6978   49.1663 dc         1 CLA      0.065600
     94 H201       85.3490   58.2662   50.2126 dc         1 CLA      0.065600
     95 H193       83.0208   59.2104   49.4121 dc         1 CLA      0.065600
     96 H192       83.1773   59.7878   47.7650 dc         1 CLA      0.065600
     97 H191       82.9232   58.0265   48.0279 dc         1 CLA      0.065600
     98 H172       84.5523   59.0731   46.1310 dc         1 CLA      0.027600
     99 H171       84.8191   57.3961   46.5458 dc         1 CLA      0.027600
    100 H162       87.3688   57.9691   46.9776 dc         1 CLA      0.002900
    101 H161       86.9937   59.4373   46.0410 dc         1 CLA      0.002900
    102 H152       85.9443   57.8451   44.2815 dc         1 CLA      0.029100
    103 H151       86.6367   56.5478   45.2311 dc         1 CLA      0.029100
    104 H143       89.4125   56.5213   45.2821 dc         1 CLA      0.063600
    105 H142       90.2083   57.6843   44.1262 dc         1 CLA      0.063600
    106 H141       89.5725   58.2884   45.6458 dc         1 CLA      0.063600
    107 H122       88.2421   55.6273   43.2077 dc         1 CLA      0.032500
    108 H121       89.0284   56.9098   42.3082 dc         1 CLA      0.032500
    109 H112       86.8822   57.9336   41.7155 dc         1 CLA      0.006600
    110 H111       86.0482   56.3527   42.2443 dc         1 CLA      0.006600
    111 H102       87.8741   54.9765   40.8892 dc         1 CLA      0.024100
    112 H101       88.2063   56.5145   40.0299 dc         1 CLA      0.024100
    113 HHD        72.7334   57.1599   41.0975 da         1 CLA      0.174300
    114 HHC        76.8228   60.8203   44.4588 da         1 CLA      0.136800
    115 HHB        81.1903   60.2377   39.9418 da         1 CLA      0.138300
    116 HBD        76.7800   56.7019   35.4205 dc         1 CLA      0.107700
    117 HAB        78.3891   62.0752   45.2672 da         1 CLA      0.155200
    118 H93        84.7911   57.0032   38.7101 dc         1 CLA      0.069500
    119 H92        85.2635   57.6119   40.2744 dc         1 CLA      0.069500
    120 H91        86.4715   57.8156   38.8835 dc         1 CLA      0.069500
    121 H8         85.4218   55.2072   40.4304 dc         1 CLA      0.029300
    122 H72        86.8443   53.9853   38.6850 dc         1 CLA      0.044400
    123 H71        87.0081   55.3454   37.7292 dc         1 CLA      0.044400
    124 H62        84.2102   54.8275   38.1423 dc         1 CLA      0.015600
    125 H61        85.0406   53.3154   37.8374 dc         1 CLA      0.015600
    126 H52        86.1113   54.3469   35.9398 dc         1 CLA      0.033200
    127 H51        84.9565   55.7750   36.1155 dc         1 CLA      0.033200
    128 H43        84.9493   53.2488   33.9246 dc         1 CLA      0.037000
    129 H42        85.4159   52.2554   35.2363 dc         1 CLA      0.037000
    130 H41        83.8209   51.9475   34.4971 dc         1 CLA      0.037000
    131 H3A        80.8976   59.6607   37.1693 dc         1 CLA      0.041100
    132 H2A        79.9928   56.8687   36.7873 dc         1 CLA      0.083100
    133 H2         82.2949   53.6807   36.6528 da         1 CLA      0.180900
    134 H18        85.3881   59.8255   48.3231 dc         1 CLA     -0.003900
    135 H13        88.0486   58.7657   43.7998 dc         1 CLA      0.019700
    136 H12        80.8333   54.4496   34.8825 dc         1 CLA      0.120400
    137 H11        82.2905   54.7193   33.8560 dc         1 CLA      0.120400
    138 C1         69.4995   61.4753   50.3313 Z1         2 LUT      0.509236
    139 C2         69.1729   62.0100   51.6409 Z2         2 LUT     -0.434695
    140 C3         67.7446   62.5451   51.7858 Z3         2 LUT      0.437453
    141 O3         67.6082   63.1669   53.0872 S1         2 LUT     -0.547129
    142 C4         67.5785   63.5997   50.7002 Z4         2 LUT     -0.468603
    143 C5         68.0722   63.3096   49.3052 Z5         2 LUT      0.279246
    144 C6         68.9479   62.2764   49.1326 Z6         2 LUT     -0.305473
    145 C7         69.5937   61.9633   47.7994 Z7         2 LUT      0.069402
    146 C8         70.6137   62.6409   47.2723 Z8         2 LUT     -0.191631
    147 C9         71.2900   62.4134   46.0068 Z9         2 LUT      0.196698
    148 C10        72.4138   63.0274   45.6615 Y1         2 LUT     -0.208611
    149 C11        73.2670   63.0070   44.4866 Y2         2 LUT      0.030784
    150 C12        74.4642   63.4877   44.2449 Y3         2 LUT     -0.220316
    151 C13        75.3668   63.5035   43.1305 Y4         2 LUT      0.215937
    152 C14        76.5161   64.2023   43.3037 Y5         2 LUT     -0.185793
    153 C15        77.6357   64.3717   42.3868 Y6         2 LUT     -0.057835
    154 C16        68.9672   60.0618   50.2611 Y7         2 LUT     -0.405615
    155 C17        71.0247   61.2086   50.1847 Y7         2 LUT     -0.405615
    156 C18        67.7829   64.5209   48.3254 Y9         2 LUT     -0.369639
    157 C19        70.5741   61.4069   45.1248 W1         2 LUT     -0.333362
    158 C20        74.9239   63.0303   41.7876 W2         2 LUT     -0.323439
    159 C21        88.9433   64.9598   36.2254 Z1         2 LUT      0.406104
    160 C22        89.6421   64.3962   34.9000 Z2         2 LUT     -0.404965
    161 C23        89.8199   65.4696   33.7900 Z3         2 LUT      0.391255
    162 O23        90.3494   64.7791   32.5979 S1         2 LUT     -0.528210
    163 C24        88.4547   66.1775   33.6279 W6         2 LUT     -0.258361
    164 C25        87.4641   66.1955   34.4793 Z5         2 LUT      0.133546
    165 C26        87.5148   65.4251   35.8446 W8         2 LUT     -0.147008
    166 C27        86.7553   66.1016   36.9724 Z7         2 LUT      0.023843
    167 C28        85.5489   65.8071   37.4771 Z8         2 LUT     -0.216987
    168 C29        84.8698   66.5296   38.5865 Z9         2 LUT      0.206524
    169 C30        83.8020   65.8863   39.0702 Y1         2 LUT     -0.215556
    170 C31        83.0270   66.3117   40.2190 Y2         2 LUT      0.025142
    171 C32        81.8561   65.6408   40.5254 Y3         2 LUT     -0.212209
    172 C33        80.9381   65.9682   41.5923 Y4         2 LUT      0.240937
    173 C34        79.8665   65.1367   41.6604 Y5         2 LUT     -0.218862
    174 C35        78.7567   65.2013   42.5745 Y6         2 LUT     -0.023547
    175 C36        89.8479   66.0135   36.8815 Y7         2 LUT     -0.393485
    176 C37        89.0331   63.8194   37.2338 Y7         2 LUT     -0.393485
    177 C38        86.3379   67.1071   34.1196 Y9         2 LUT     -0.387526
    178 C39        85.4510   67.8897   39.0041 W1         2 LUT     -0.322618
    179 C40        80.9888   67.3320   42.2658 W2         2 LUT     -0.358472
    180 H403       80.7935   68.2699   41.6241 R7         2 LUT      0.097720
    181 H402       80.3468   67.4455   43.1546 R7         2 LUT      0.097720
    182 H401       81.8905   67.5684   42.7722 R7         2 LUT      0.097720
    183 H393       85.8392   68.4289   38.1331 R4         2 LUT      0.082505
    184 H392       84.8761   68.6858   39.4723 R4         2 LUT      0.082505
    185 H391       86.3109   67.8657   39.7282 R4         2 LUT      0.082505
    186 H383       85.4458   66.6954   34.5124 R1         2 LUT      0.104030
    187 H382       86.6248   68.1029   34.5075 R1         2 LUT      0.104030
    188 H381       86.1324   67.2792   33.0591 R1         2 LUT      0.104030
    189 H373       90.0623   63.4400   37.4672 T4         2 LUT      0.089537
    190 H372       88.5161   64.0779   38.1088 T4         2 LUT      0.089537
    191 H371       88.4794   62.9312   36.9062 T4         2 LUT      0.089537
    192 H363       89.6455   66.9451   36.3639 T4         2 LUT      0.089537
    193 H362       89.5377   66.3455   37.9158 T4         2 LUT      0.089537
    194 H361       90.9021   65.8591   36.7973 T4         2 LUT      0.089537
    195 H222       90.6555   63.9903   35.1258 U2         2 LUT      0.127376
    196 H221       88.9022   63.6397   34.5380 U2         2 LUT      0.127376
    197 H203       75.3852   63.6048   41.0127 R7         2 LUT      0.087068
    198 H202       75.2618   62.0325   41.6411 R7         2 LUT      0.087068
    199 H201       73.8209   63.1202   41.6432 R7         2 LUT      0.087068
    200 H193       69.5662   61.4866   45.1450 R4         2 LUT      0.089716
    201 H192       70.7327   61.5704   44.1167 R4         2 LUT      0.089716
    202 H191       70.8159   60.3850   45.3289 R4         2 LUT      0.089716
    203 H183       67.0511   64.2099   47.5811 R1         2 LUT      0.094572
    204 H182       67.4729   65.4555   48.7585 R1         2 LUT      0.094572
    205 H181       68.7381   64.7512   47.9763 R1         2 LUT      0.094572
    206 H173       71.6761   62.0740   50.0925 T4         2 LUT      0.093752
    207 H172       71.2849   60.5406   51.0800 T4         2 LUT      0.093752
    208 H171       71.3594   60.5064   49.3908 T4         2 LUT      0.093752
    209 H163       69.3863   59.5461   49.4251 T4         2 LUT      0.093752
    210 H162       69.1897   59.4754   51.1781 T4         2 LUT      0.093752
    211 H161       67.8317   60.1874   50.1590 T4         2 LUT      0.093752
    212 HO3        67.1808   62.5551   53.7096 Q1         2 LUT      0.300121
    213 H8         71.0274   63.4460   47.8870 U7         2 LUT      0.080784
    214 H7         69.0427   61.2391   47.2109 U6         2 LUT      0.042190
    215 H42        66.4799   63.7699   50.6471 U5         2 LUT      0.145166
    216 H41        67.9772   64.5789   51.0017 U5         2 LUT      0.145166
    217 H35        78.7809   65.9276   43.3797 T3         2 LUT      0.077919
    218 H34        79.8711   64.2607   40.9689 T2         2 LUT      0.073626
    219 H32        81.6461   64.6827   39.9867 T1         2 LUT      0.092510
    220 H31        83.2527   67.1735   40.7837 U9         2 LUT      0.070048
    221 H30        83.5694   64.8123   38.7834 U8         2 LUT      0.085442
    222 H3         67.0397   61.7606   51.4398 U3         2 LUT     -0.031596
    223 H28        85.0906   64.9040   37.1386 U7         2 LUT      0.084728
    224 H27        87.3534   66.9461   37.4532 U6         2 LUT      0.087291
    225 H26        86.9556   64.5479   35.5254 Q6         2 LUT      0.075325
    226 H24        88.3369   66.7959   32.6874 Q5         2 LUT      0.094482
    227 H23        90.6248   66.0925   34.1762 U3         2 LUT     -0.024869
    228 H22        69.4305   61.3504   52.5059 U2         2 LUT      0.127376
    229 H21        69.8475   62.9080   51.7222 U2         2 LUT      0.127376
    230 H15        77.7233   63.7234   41.4885 T3         2 LUT      0.093200
    231 H14        76.6488   64.7923   44.1919 T2         2 LUT      0.068865
    232 H12        74.8488   64.0161   45.1015 T1         2 LUT      0.095507
    233 H11        72.7425   62.4324   43.6747 U9         2 LUT      0.068930
    234 H10        72.8196   63.7734   46.3895 U8         2 LUT      0.083911
    235 H1         89.6096   64.3070   32.1658 Q1         2 LUT      0.297311
@<TRIPOS>BOND
    1     6     1 1
    2     7     2 1
    3     8     3 1
    4     9     4 1
    5    11     4 1
    6    12     6 1
    7    13     9 1
    8    16     9 1
    9    25     5 1
   10    25    16 1
   11    26    10 1
   12    26    17 1
   13    27    18 1
   14    28    14 1
   15    28    19 1
   16    29    12 1
   17    30    13 1
   18    31    24 1
   19    32     1 1
   20    32    25 1
   21    33    21 1
   22    33    26 1
   23    34    22 1
   24    34    27 1
   25    35    23 1
   26    35    28 1
   27    36    12 1
   28    36    24 1
   29    37    13 1
   30    37    15 1
   31    38    31 1
   32    39    20 1
   33    39    32 1
   34    40     2 1
   35    40    33 1
   36    41     3 1
   37    41    34 1
   38    42     4 1
   39    42    35 1
   40    43    38 1
   41    44     5 1
   42    44    17 1
   43    44    39 1
   44    45    10 1
   45    45    18 1
   46    45    40 1
   47    46    19 1
   48    46    41 1
   49    47    14 1
   50    47    16 1
   51    47    42 1
   52    48    38 1
   53    49    48 1
   54    50    49 1
   55    51    50 1
   56    52    51 1
   57    53    51 1
   58    54    53 1
   59    55    54 1
   60    56    55 1
   61    57    56 1
   62    58    56 1
   63    59    58 1
   64    60    59 1
   65    61    60 1
   66    62    61 1
   67    63    61 1
   68    64    27 1
   69    64    46 1
   70    65     5 1
   71    65    10 1
   72    65    64 1
   73    65    14 1
   74    66    23 1
   75    67    23 1
   76    68    23 1
   77    69    22 1
   78    70    22 1
   79    71    22 1
   80    72    21 1
   81    73    21 1
   82    74    21 1
   83    75    20 1
   84    76    20 1
   85    77    20 1
   86    78    15 1
   87    79    15 1
   88    80    15 1
   89    81     8 1
   90    82     8 1
   91    83     8 1
   92    84     7 1
   93    85     7 1
   94    86     6 1
   95    87     6 1
   96    88     3 1
   97    89     3 1
   98    90     1 1
   99    91     1 1
  100    92    63 1
  101    93    63 1
  102    94    63 1
  103    95    62 1
  104    96    62 1
  105    97    62 1
  106    98    60 1
  107    99    60 1
  108   100    59 1
  109   101    59 1
  110   102    58 1
  111   103    58 1
  112   104    57 1
  113   105    57 1
  114   106    57 1
  115   107    55 1
  116   108    55 1
  117   109    54 1
  118   110    54 1
  119   111    53 1
  120   112    53 1
  121   113    19 1
  122   114    18 1
  123   115    17 1
  124   116     9 1
  125   117     2 1
  126   118    52 1
  127   119    52 1
  128   120    52 1
  129   121    51 1
  130   122    50 1
  131   123    50 1
  132   124    49 1
  133   125    49 1
  134   126    48 1
  135   127    48 1
  136   128    43 1
  137   129    43 1
  138   130    43 1
  139   131    39 1
  140   132    32 1
  141   133    31 1
  142   134    61 1
  143   135    56 1
  144   136    24 1
  145   137    24 1
  146   139   138 1
  147   140   139 1
  148   141   140 1
  149   142   140 1
  150   143   142 1
  151   144   138 1
  152   144   143 1
  153   145   144 1
  154   146   145 1
  155   147   146 1
  156   148   147 1
  157   149   148 1
  158   150   149 1
  159   151   150 1
  160   152   151 1
  161   153   152 1
  162   154   138 1
  163   155   138 1
  164   156   143 1
  165   157   147 1
  166   158   151 1
  167   160   159 1
  168   161   160 1
  169   162   161 1
  170   163   161 1
  171   164   163 1
  172   165   159 1
  173   165   164 1
  174   166   165 1
  175   167   166 1
  176   168   167 1
  177   169   168 1
  178   170   169 1
  179   171   170 1
  180   172   171 1
  181   173   172 1
  182   174   153 1
  183   174   173 1
  184   175   159 1
  185   176   159 1
  186   177   164 1
  187   178   168 1
  188   179   172 1
  189   180   179 1
  190   181   179 1
  191   182   179 1
  192   183   178 1
  193   184   178 1
  194   185   178 1
  195   186   177 1
  196   187   177 1
  197   188   177 1
  198   189   176 1
  199   190   176 1
  200   191   176 1
  201   192   175 1
  202   193   175 1
  203   194   175 1
  204   195   160 1
  205   196   160 1
  206   197   158 1
  207   198   158 1
  208   199   158 1
  209   200   157 1
  210   201   157 1
  211   202   157 1
  212   203   156 1
  213   204   156 1
  214   205   156 1
  215   206   155 1
  216   207   155 1
  217   208   155 1
  218   209   154 1
  219   210   154 1
  220   211   154 1
  221   212   141 1
  222   213   146 1
  223   214   145 1
  224   215   142 1
  225   216   142 1
  226   217   174 1
  227   218   173 1
  228   219   171 1
  229   220   170 1
  230   221   169 1
  231   222   140 1
  232   223   167 1
  233   224   166 1
  234   225   165 1
  235   226   163 1
  236   227   161 1
  237   228   139 1
  238   229   139 1
  239   230   153 1
  240   231   152 1
  241   232   150 1
  242   233   149 1
  243   234   148 1
  244   235   162 1
  245   65    153 1
  246   65    174 1
@<TRIPOS>SUBSTRUCTURE
      1 CLA               1 ****               0 ****  **** 
      2 LUT             138 ****               0 ****  **** 
