@<TRIPOS>MOLECULE
Cpptraj generated mol2 file.
  235   246     2     0     0
SMALL
USER_CHARGES


@<TRIPOS>ATOM
      1 CAA        79.3066   59.2973   34.7125 a2         1 CLA     -0.055900
      2 CAB        79.4251   62.9298   43.4490 c8         1 CLA     -0.148500
      3 CAC        72.0191   59.5528   43.0625 a2         1 CLA     -0.012600
      4 CAD        74.7114   56.8596   35.7619 ck         1 CLA      0.398800
      5 NA         78.0950   59.4229   38.0912 ns         1 CLA     -0.225500
      6 CBA        80.6431   59.1021   33.9908 a2         1 CLA     -0.135000
      7 CBB        80.5726   62.8769   44.1895 c0         1 CLA     -0.395200
      8 CBC        71.9564   58.1435   43.4157 a3         1 CLA     -0.037700
      9 CBD        76.1754   57.4183   35.4072 a1         1 CLA     -0.053900
     10 NB         78.1531   61.1261   40.6168 nm         1 CLA     -0.295700
     11 OBD        74.0275   56.1080   35.0821 o2         1 CLA     -0.494600
     12 CGA        80.9072   57.6561   33.5055 c4         1 CLA      0.827000
     13 CGD        77.1247   56.2883   35.0139 c4         1 CLA      0.655300
     14 ND         75.3826   58.7934   38.7019 nm         1 CLA     -0.291600
     15 CED        77.8962   54.1479   35.5277 a3         1 CLA      0.005400
     16 CHA        76.6715   58.2398   36.6204 cs         1 CLA     -0.123800
     17 CHB        80.0847   60.5206   39.1859 aa         1 CLA     -0.291900
     18 CHC        76.7903   61.5390   42.6706 aa         1 CLA     -0.090400
     19 CHD        73.4818   58.8288   40.3381 aa         1 CLA     -0.052000
     20 CMA        81.3900   58.2945   37.5875 a3         1 CLA     -0.230700
     21 CMB        81.7786   62.1512   41.2255 a3         1 CLA     -0.180800
     22 CMC        74.4331   61.1274   44.7282 a3         1 CLA     -0.134000
     23 CMD        72.1023   56.9733   38.0191 a3         1 CLA     -0.141100
     24 C1         81.9400   55.5962   34.0466 a2         1 CLA      0.023000
     25 C1A        77.8911   58.8247   36.8724 ac         1 CLA     -0.015100
     26 C1B        79.4419   61.2328   40.2175 cr         1 CLA      0.054700
     27 C1C        75.4923   60.9973   42.3813 cn         1 CLA     -0.005600
     28 C1D        74.1063   58.3977   39.1048 ap         1 CLA     -0.047300
     29 O1A        80.4610   57.1487   32.4821 o2         1 CLA     -0.610800
     30 O1D        77.9096   56.3670   34.0536 o2         1 CLA     -0.558200
     31 C2         82.5603   54.8478   35.2047 c8         1 CLA     -0.325100
     32 C2A        79.2337   58.6332   36.1205 a1         1 CLA      0.098600
     33 C2B        80.2555   62.0378   41.1870 cb         1 CLA      0.088500
     34 C2C        74.3792   60.8097   43.2904 cb         1 CLA      0.053700
     35 C2D        73.4786   57.5569   38.0714 cb         1 CLA      0.058900
     36 O2A        81.6640   56.9385   34.4759 o1         1 CLA     -0.437200
     37 O2D        77.1070   55.2819   35.8835 o1         1 CLA     -0.357600
     38 C3         83.6875   54.1502   35.0071 c5         1 CLA      0.031200
     39 C3A        80.2891   59.2454   37.0585 a1         1 CLA      0.166800
     40 C3B        79.2758   62.2551   42.1931 cb         1 CLA      0.035000
     41 C3C        73.3456   60.1107   42.5723 cb         1 CLA     -0.089900
     42 C3D        74.4436   57.5143   37.0517 cb         1 CLA     -0.035900
     43 C4         83.7583   52.7109   34.5086 a3         1 CLA     -0.053300
     44 C4A        79.4498   59.6807   38.2370 ac         1 CLA      0.001800
     45 C4B        78.0088   61.6465   41.8497 cn         1 CLA     -0.020900
     46 C4C        73.9190   59.7207   41.3501 cr         1 CLA     -0.044400
     47 C4D        75.5646   58.2616   37.4750 c6         1 CLA     -0.046000
     48 C5         85.0819   54.6645   35.1671 a2         1 CLA     -0.070400
     49 C6         85.2918   55.9538   36.0423 a2         1 CLA      0.043900
     50 C7         85.0537   55.7701   37.5605 a2         1 CLA     -0.150000
     51 C8         85.3214   57.0291   38.3813 a1         1 CLA      0.064200
     52 C9         86.6150   57.7526   37.9804 a3         1 CLA     -0.259300
     53 C10        85.2282   56.7999   39.9973 a2         1 CLA     -0.071900
     54 C11        85.5045   58.0705   40.7874 a2         1 CLA      0.014500
     55 C12        85.3294   57.9373   42.2562 a2         1 CLA     -0.112100
     56 C13        85.7552   59.1148   43.2255 a1         1 CLA      0.089200
     57 C14        87.2536   59.4834   43.1425 a3         1 CLA     -0.239100
     58 C15        85.4098   58.6107   44.7163 a2         1 CLA     -0.102200
     59 C16        85.3128   59.6998   45.7404 a2         1 CLA      0.023900
     60 C17        84.9200   59.1719   47.1132 a2         1 CLA     -0.105700
     61 C18        84.8295   60.1689   48.3059 a1         1 CLA      0.206800
     62 C19        83.8474   61.3242   47.9190 a3         1 CLA     -0.280100
     63 C20        84.2949   59.3710   49.4913 a3         1 CLA     -0.280100
     64 NC         75.2088   60.3767   41.2171 nx         1 CLA     -0.309200
     65 MG         76.6486   60.0444   39.5949 mg         1 CLA      0.895000
     66 HMD3       71.4650   57.8177   38.2927 dc         1 CLA      0.064300
     67 HMD2       71.8607   56.6983   37.0121 dc         1 CLA      0.064300
     68 HMD1       72.0070   56.0832   38.6826 dc         1 CLA      0.064300
     69 HMC3       74.8477   62.1539   44.7901 dc         1 CLA      0.052100
     70 HMC2       73.5626   60.9812   45.3267 dc         1 CLA      0.052100
     71 HMC1       75.0570   60.4591   45.2432 dc         1 CLA      0.052100
     72 HMB3       82.3031   62.2620   40.2217 dc         1 CLA      0.063600
     73 HMB2       82.0504   63.0554   41.7458 dc         1 CLA      0.063600
     74 HMB1       82.1644   61.3140   41.7116 dc         1 CLA      0.063600
     75 HMA3       81.7084   58.3358   38.6818 dc         1 CLA      0.058300
     76 HMA2       81.0234   57.2202   37.5248 dc         1 CLA      0.058300
     77 HMA1       82.2861   58.5589   36.9797 dc         1 CLA      0.058300
     78 HED3       77.8118   53.8583   34.4612 dc         1 CLA      0.079300
     79 HED2       78.9533   54.3539   35.6661 dc         1 CLA      0.079300
     80 HED1       77.6393   53.2585   36.1397 dc         1 CLA      0.079300
     81 HBC3       71.0277   57.9799   43.9481 dc         1 CLA      0.016300
     82 HBC2       71.8902   57.5677   42.4307 dc         1 CLA      0.016300
     83 HBC1       72.8006   57.7789   44.0260 dc         1 CLA      0.016300
     84 HBB2       80.5737   63.2839   45.1882 da         1 CLA      0.183000
     85 HBB1       81.4527   62.2651   43.8562 da         1 CLA      0.183000
     86 HBA2       80.5599   59.7554   33.1228 dc         1 CLA      0.029400
     87 HBA1       81.4946   59.5102   34.5240 dc         1 CLA      0.029400
     88 HAC2       71.5987   60.0146   43.9427 dc         1 CLA      0.029300
     89 HAC1       71.2735   59.6331   42.3569 dc         1 CLA      0.029300
     90 HAA2       78.4949   58.8915   34.1481 dc         1 CLA      0.028700
     91 HAA1       79.1264   60.3766   34.7961 dc         1 CLA      0.028700
     92 H203       83.3260   58.8624   49.3566 dc         1 CLA      0.065600
     93 H202       85.0371   58.6045   49.7998 dc         1 CLA      0.065600
     94 H201       84.3002   59.9689   50.3771 dc         1 CLA      0.065600
     95 H193       83.6885   61.9673   48.7710 dc         1 CLA      0.065600
     96 H192       84.2303   61.9260   47.0891 dc         1 CLA      0.065600
     97 H191       82.8226   60.9713   47.6955 dc         1 CLA      0.065600
     98 H172       83.9173   58.8312   46.9060 dc         1 CLA      0.027600
     99 H171       85.5751   58.2989   47.4359 dc         1 CLA      0.027600
    100 H162       86.2760   60.1894   45.7880 dc         1 CLA      0.002900
    101 H161       84.5060   60.3878   45.4534 dc         1 CLA      0.002900
    102 H152       84.4757   58.1717   44.6645 dc         1 CLA      0.029100
    103 H151       86.0845   57.9249   45.0959 dc         1 CLA      0.029100
    104 H143       87.5026   60.1412   43.9854 dc         1 CLA      0.063600
    105 H142       87.9324   58.6908   43.0368 dc         1 CLA      0.063600
    106 H141       87.2897   60.1794   42.2377 dc         1 CLA      0.063600
    107 H122       84.2275   57.8741   42.3789 dc         1 CLA      0.032500
    108 H121       85.8765   57.0049   42.5568 dc         1 CLA      0.032500
    109 H112       86.5117   58.4416   40.7373 dc         1 CLA      0.006600
    110 H111       84.7953   58.8444   40.5824 dc         1 CLA      0.006600
    111 H102       84.2375   56.3290   40.3120 dc         1 CLA      0.024100
    112 H101       86.0037   56.1122   40.2638 dc         1 CLA      0.024100
    113 HHD        72.4981   58.3418   40.5733 da         1 CLA      0.174300
    114 HHC        76.9020   61.9280   43.6733 da         1 CLA      0.136800
    115 HHB        81.1676   60.6587   39.0388 da         1 CLA      0.138300
    116 HBD        75.9848   57.9865   34.4986 dc         1 CLA      0.107700
    117 HAB        78.5107   63.3395   43.8597 da         1 CLA      0.155200
    118 H93        87.4683   57.1140   38.1811 dc         1 CLA      0.069500
    119 H92        86.6535   58.1307   36.9600 dc         1 CLA      0.069500
    120 H91        86.8174   58.6276   38.5488 dc         1 CLA      0.069500
    121 H8         84.5546   57.7697   38.0898 dc         1 CLA      0.029300
    122 H72        84.0191   55.4929   37.6776 dc         1 CLA      0.044400
    123 H71        85.7591   54.9263   37.9552 dc         1 CLA      0.044400
    124 H62        86.4101   56.1822   35.9652 dc         1 CLA      0.015600
    125 H61        84.6355   56.6710   35.5505 dc         1 CLA      0.015600
    126 H52        85.7528   53.8338   35.4005 dc         1 CLA      0.033200
    127 H51        85.5332   54.9294   34.1840 dc         1 CLA      0.033200
    128 H43        84.1006   52.6892   33.4699 dc         1 CLA      0.037000
    129 H42        84.2736   52.0956   35.2491 dc         1 CLA      0.037000
    130 H41        82.7690   52.3496   34.4788 dc         1 CLA      0.037000
    131 H3A        80.6513   60.1531   36.7597 dc         1 CLA      0.041100
    132 H2A        79.3813   57.6058   35.9872 dc         1 CLA      0.083100
    133 H2         82.0096   54.7743   36.1434 da         1 CLA      0.180900
    134 H18        85.8425   60.5017   48.4484 dc         1 CLA     -0.003900
    135 H13        85.1498   59.9381   42.9418 dc         1 CLA      0.019700
    136 H12        81.0814   55.0688   33.5759 dc         1 CLA      0.120400
    137 H11        82.7067   55.6321   33.2436 dc         1 CLA      0.120400
    138 C1         69.1007   61.9376   50.0287 Z1         2 LUT      0.509236
    139 C2         67.7977   61.3021   50.5962 Z2         2 LUT     -0.434695
    140 C3         66.9897   62.2437   51.4258 Z3         2 LUT      0.437453
    141 O3         67.4018   62.0165   52.7506 S1         2 LUT     -0.547129
    142 C4         67.0769   63.6645   50.9227 Z4         2 LUT     -0.468603
    143 C5         67.5581   63.7918   49.4444 Z5         2 LUT      0.279246
    144 C6         68.6122   63.0289   49.0493 Z6         2 LUT     -0.305473
    145 C7         68.8090   62.8589   47.6202 Z7         2 LUT      0.069402
    146 C8         70.0023   62.9628   47.0136 Z8         2 LUT     -0.191631
    147 C9         70.2942   62.7521   45.5835 Z9         2 LUT      0.196698
    148 C10        71.3386   63.5771   45.1250 Y1         2 LUT     -0.208611
    149 C11        71.8773   63.6174   43.7821 Y2         2 LUT      0.030784
    150 C12        72.9965   64.3905   43.4707 Y3         2 LUT     -0.220316
    151 C13        73.8548   64.3612   42.3012 Y4         2 LUT      0.215937
    152 C14        75.1729   64.8519   42.4289 Y5         2 LUT     -0.185793
    153 C15        76.2720   64.9086   41.5243 Y6         2 LUT     -0.057835
    154 C16        69.8427   60.6656   49.5118 Y7         2 LUT     -0.405615
    155 C17        69.9770   62.5433   51.2135 Y7         2 LUT     -0.405615
    156 C18        66.6152   64.7302   48.5675 Y9         2 LUT     -0.369639
    157 C19        69.4320   61.7637   44.9270 W1         2 LUT     -0.333362
    158 C20        73.4232   63.5665   41.1112 W2         2 LUT     -0.323439
    159 C21        87.6691   66.2415   35.0230 Z1         2 LUT      0.406104
    160 C22        88.3811   65.7969   33.7851 Z2         2 LUT     -0.404965
    161 C23        88.5080   66.8328   32.6547 Z3         2 LUT      0.391255
    162 O23        89.1781   66.2754   31.5133 S1         2 LUT     -0.528210
    163 C24        87.0807   67.4178   32.4643 W6         2 LUT     -0.258361
    164 C25        86.0535   67.3817   33.3482 Z5         2 LUT      0.133546
    165 C26        86.1478   66.5672   34.6444 W8         2 LUT     -0.147008
    166 C27        85.3925   67.2838   35.7728 Z7         2 LUT      0.023843
    167 C28        84.1045   66.9287   36.0897 Z8         2 LUT     -0.216987
    168 C29        83.4350   67.3225   37.3132 Z9         2 LUT      0.206524
    169 C30        82.4469   66.4927   37.7744 Y1         2 LUT     -0.215556
    170 C31        81.6450   66.6581   39.0548 Y2         2 LUT      0.025142
    171 C32        80.5732   65.9742   39.4769 Y3         2 LUT     -0.212209
    172 C33        79.6981   66.2382   40.5890 Y4         2 LUT      0.240937
    173 C34        78.6248   65.3909   40.7787 Y5         2 LUT     -0.218862
    174 C35        77.5467   65.4550   41.7229 Y6         2 LUT     -0.023547
    175 C36        88.4210   67.3841   35.6445 Y7         2 LUT     -0.393485
    176 C37        87.8039   65.0524   36.0153 Y7         2 LUT     -0.393485
    177 C38        84.6998   68.0432   33.0362 Y9         2 LUT     -0.387526
    178 C39        83.8638   68.6056   37.9742 W1         2 LUT     -0.322618
    179 C40        80.1103   67.4139   41.4357 W2         2 LUT     -0.358472
    180 H403       80.3320   68.2694   40.8979 R7         2 LUT      0.097720
    181 H402       79.3719   67.7395   42.2201 R7         2 LUT      0.097720
    182 H401       81.0426   67.2430   42.0221 R7         2 LUT      0.097720
    183 H393       84.0789   69.3227   37.1851 R4         2 LUT      0.082505
    184 H392       83.1632   68.9822   38.7171 R4         2 LUT      0.082505
    185 H391       84.7492   68.4650   38.4953 R4         2 LUT      0.082505
    186 H383       84.3127   68.7755   33.7188 R1         2 LUT      0.104030
    187 H382       84.7466   68.4929   32.0756 R1         2 LUT      0.104030
    188 H381       84.0195   67.1790   32.9037 R1         2 LUT      0.104030
    189 H373       87.2221   64.2252   35.5501 T4         2 LUT      0.089537
    190 H372       88.8285   64.7432   36.2802 T4         2 LUT      0.089537
    191 H371       87.2878   65.2004   36.9884 T4         2 LUT      0.089537
    192 H363       88.0271   67.8089   36.5929 T4         2 LUT      0.089537
    193 H362       89.4797   67.0270   35.7765 T4         2 LUT      0.089537
    194 H361       88.4022   68.2885   34.9875 T4         2 LUT      0.089537
    195 H222       89.4120   65.5017   33.9913 U2         2 LUT      0.127376
    196 H221       87.9139   64.9312   33.3358 U2         2 LUT      0.127376
    197 H203       73.9992   64.0166   40.2344 R7         2 LUT      0.087068
    198 H202       73.7685   62.5313   41.1183 R7         2 LUT      0.087068
    199 H201       72.4212   63.6282   40.9211 R7         2 LUT      0.087068
    200 H193       69.9044   61.5895   43.9468 R4         2 LUT      0.089716
    201 H192       69.3486   60.7600   45.4386 R4         2 LUT      0.089716
    202 H191       68.4470   62.0586   44.8284 R4         2 LUT      0.089716
    203 H183       65.8884   64.0986   47.9783 R1         2 LUT      0.094572
    204 H182       66.0441   65.4744   49.2882 R1         2 LUT      0.094572
    205 H181       67.1213   65.2536   47.8556 R1         2 LUT      0.094572
    206 H173       70.9580   62.8305   50.7662 T4         2 LUT      0.093752
    207 H172       69.5842   63.3660   51.8373 T4         2 LUT      0.093752
    208 H171       70.1624   61.7920   52.0285 T4         2 LUT      0.093752
    209 H163       69.2064   60.0340   48.8547 T4         2 LUT      0.093752
    210 H162       70.7127   60.9177   48.9453 T4         2 LUT      0.093752
    211 H161       70.2988   59.9468   50.2853 T4         2 LUT      0.093752
    212 HO3        66.7548   62.2592   53.4023 Q1         2 LUT      0.300121
    213 H8         70.8415   63.2114   47.5617 U7         2 LUT      0.080784
    214 H7         67.9634   62.6236   46.9932 U6         2 LUT      0.042190
    215 H42        66.0643   64.0614   50.8793 U5         2 LUT      0.145166
    216 H41        67.6270   64.3890   51.6050 U5         2 LUT      0.145166
    217 H35        77.8720   66.0504   42.6193 T3         2 LUT      0.077919
    218 H34        78.4578   64.6670   39.9725 T2         2 LUT      0.073626
    219 H32        80.3344   65.1226   38.8447 T1         2 LUT      0.092510
    220 H31        81.9821   67.5205   39.6481 U9         2 LUT      0.070048
    221 H30        82.2680   65.6454   37.2191 U8         2 LUT      0.085442
    222 H3         65.9615   61.8837   51.3251 U3         2 LUT     -0.031596
    223 H28        83.6547   66.1198   35.5340 U7         2 LUT      0.084728
    224 H27        85.8564   68.0268   36.2994 U6         2 LUT      0.087291
    225 H26        85.6673   65.6388   34.2822 Q6         2 LUT      0.075325
    226 H24        87.0399   68.0978   31.6123 Q5         2 LUT      0.094482
    227 H23        89.1031   67.7124   33.1172 U3         2 LUT     -0.024869
    228 H22        67.1650   61.0177   49.7850 U2         2 LUT      0.127376
    229 H21        68.0659   60.4069   51.1713 U2         2 LUT      0.127376
    230 H15        76.1353   64.4909   40.5796 T3         2 LUT      0.093200
    231 H14        75.6187   65.0531   43.4073 T2         2 LUT      0.068865
    232 H12        73.4116   64.9174   44.3447 T1         2 LUT      0.095507
    233 H11        71.4620   63.0288   42.9916 U9         2 LUT      0.068930
    234 H10        71.8928   64.2281   45.8731 U8         2 LUT      0.083911
    235 H1         88.6385   65.7170   30.9953 Q1         2 LUT      0.297311
@<TRIPOS>BOND
    1     6     1 1
    2     7     2 1
    3     8     3 1
    4     9     4 1
    5    11     4 1
    6    12     6 1
    7    13     9 1
    8    16     9 1
    9    25     5 1
   10    25    16 1
   11    26    10 1
   12    26    17 1
   13    27    18 1
   14    28    14 1
   15    28    19 1
   16    29    12 1
   17    30    13 1
   18    31    24 1
   19    32     1 1
   20    32    25 1
   21    33    21 1
   22    33    26 1
   23    34    22 1
   24    34    27 1
   25    35    23 1
   26    35    28 1
   27    36    12 1
   28    36    24 1
   29    37    13 1
   30    37    15 1
   31    38    31 1
   32    39    20 1
   33    39    32 1
   34    40     2 1
   35    40    33 1
   36    41     3 1
   37    41    34 1
   38    42     4 1
   39    42    35 1
   40    43    38 1
   41    44     5 1
   42    44    17 1
   43    44    39 1
   44    45    10 1
   45    45    18 1
   46    45    40 1
   47    46    19 1
   48    46    41 1
   49    47    14 1
   50    47    16 1
   51    47    42 1
   52    48    38 1
   53    49    48 1
   54    50    49 1
   55    51    50 1
   56    52    51 1
   57    53    51 1
   58    54    53 1
   59    55    54 1
   60    56    55 1
   61    57    56 1
   62    58    56 1
   63    59    58 1
   64    60    59 1
   65    61    60 1
   66    62    61 1
   67    63    61 1
   68    64    27 1
   69    64    46 1
   70    65     5 1
   71    65    10 1
   72    65    64 1
   73    65    14 1
   74    66    23 1
   75    67    23 1
   76    68    23 1
   77    69    22 1
   78    70    22 1
   79    71    22 1
   80    72    21 1
   81    73    21 1
   82    74    21 1
   83    75    20 1
   84    76    20 1
   85    77    20 1
   86    78    15 1
   87    79    15 1
   88    80    15 1
   89    81     8 1
   90    82     8 1
   91    83     8 1
   92    84     7 1
   93    85     7 1
   94    86     6 1
   95    87     6 1
   96    88     3 1
   97    89     3 1
   98    90     1 1
   99    91     1 1
  100    92    63 1
  101    93    63 1
  102    94    63 1
  103    95    62 1
  104    96    62 1
  105    97    62 1
  106    98    60 1
  107    99    60 1
  108   100    59 1
  109   101    59 1
  110   102    58 1
  111   103    58 1
  112   104    57 1
  113   105    57 1
  114   106    57 1
  115   107    55 1
  116   108    55 1
  117   109    54 1
  118   110    54 1
  119   111    53 1
  120   112    53 1
  121   113    19 1
  122   114    18 1
  123   115    17 1
  124   116     9 1
  125   117     2 1
  126   118    52 1
  127   119    52 1
  128   120    52 1
  129   121    51 1
  130   122    50 1
  131   123    50 1
  132   124    49 1
  133   125    49 1
  134   126    48 1
  135   127    48 1
  136   128    43 1
  137   129    43 1
  138   130    43 1
  139   131    39 1
  140   132    32 1
  141   133    31 1
  142   134    61 1
  143   135    56 1
  144   136    24 1
  145   137    24 1
  146   139   138 1
  147   140   139 1
  148   141   140 1
  149   142   140 1
  150   143   142 1
  151   144   138 1
  152   144   143 1
  153   145   144 1
  154   146   145 1
  155   147   146 1
  156   148   147 1
  157   149   148 1
  158   150   149 1
  159   151   150 1
  160   152   151 1
  161   153   152 1
  162   154   138 1
  163   155   138 1
  164   156   143 1
  165   157   147 1
  166   158   151 1
  167   160   159 1
  168   161   160 1
  169   162   161 1
  170   163   161 1
  171   164   163 1
  172   165   159 1
  173   165   164 1
  174   166   165 1
  175   167   166 1
  176   168   167 1
  177   169   168 1
  178   170   169 1
  179   171   170 1
  180   172   171 1
  181   173   172 1
  182   174   153 1
  183   174   173 1
  184   175   159 1
  185   176   159 1
  186   177   164 1
  187   178   168 1
  188   179   172 1
  189   180   179 1
  190   181   179 1
  191   182   179 1
  192   183   178 1
  193   184   178 1
  194   185   178 1
  195   186   177 1
  196   187   177 1
  197   188   177 1
  198   189   176 1
  199   190   176 1
  200   191   176 1
  201   192   175 1
  202   193   175 1
  203   194   175 1
  204   195   160 1
  205   196   160 1
  206   197   158 1
  207   198   158 1
  208   199   158 1
  209   200   157 1
  210   201   157 1
  211   202   157 1
  212   203   156 1
  213   204   156 1
  214   205   156 1
  215   206   155 1
  216   207   155 1
  217   208   155 1
  218   209   154 1
  219   210   154 1
  220   211   154 1
  221   212   141 1
  222   213   146 1
  223   214   145 1
  224   215   142 1
  225   216   142 1
  226   217   174 1
  227   218   173 1
  228   219   171 1
  229   220   170 1
  230   221   169 1
  231   222   140 1
  232   223   167 1
  233   224   166 1
  234   225   165 1
  235   226   163 1
  236   227   161 1
  237   228   139 1
  238   229   139 1
  239   230   153 1
  240   231   152 1
  241   232   150 1
  242   233   149 1
  243   234   148 1
  244   235   162 1
  245   65    153 1
  246   65    174 1
@<TRIPOS>SUBSTRUCTURE
      1 CLA               1 ****               0 ****  **** 
      2 LUT             138 ****               0 ****  **** 
