@<TRIPOS>MOLECULE
Cpptraj generated mol2 file.
  235   246     2     0     0
SMALL
USER_CHARGES


@<TRIPOS>ATOM
      1 CAA        79.7151   57.7868   34.8302 a2         1 CLA     -0.055900
      2 CAB        79.7573   61.8654   43.6548 c8         1 CLA     -0.148500
      3 CAC        72.9262   57.7653   43.2581 a2         1 CLA     -0.012600
      4 CAD        75.4281   55.3978   36.1706 ck         1 CLA      0.398800
      5 NA         78.8186   58.2904   38.2376 ns         1 CLA     -0.225500
      6 CBA        80.8650   57.5606   33.8398 a2         1 CLA     -0.135000
      7 CBB        80.8938   61.9478   44.3881 c0         1 CLA     -0.395200
      8 CBC        73.2166   56.3531   43.7658 a3         1 CLA     -0.037700
      9 CBD        76.9137   55.8498   35.7444 a1         1 CLA     -0.053900
     10 NB         78.7760   59.9880   40.6757 nm         1 CLA     -0.295700
     11 OBD        74.6956   54.6244   35.5821 o2         1 CLA     -0.494600
     12 CGA        81.2155   56.1227   33.4969 c4         1 CLA      0.827000
     13 CGD        77.8656   54.7025   35.5001 c4         1 CLA      0.655300
     14 ND         75.9869   57.4737   38.8705 nm         1 CLA     -0.291600
     15 CED        78.8742   52.6883   36.4165 a3         1 CLA      0.005400
     16 CHA        77.3597   56.8359   36.9061 cs         1 CLA     -0.123800
     17 CHB        80.6572   59.6730   39.1404 aa         1 CLA     -0.291900
     18 CHC        77.3630   60.2604   42.7590 aa         1 CLA     -0.090400
     19 CHD        74.2234   57.3485   40.5112 aa         1 CLA     -0.052000
     20 CMA        82.1766   57.1779   37.8169 a3         1 CLA     -0.230700
     21 CMB        82.0478   61.6090   41.3485 a3         1 CLA     -0.180800
     22 CMC        74.9433   59.9652   44.7288 a3         1 CLA     -0.134000
     23 CMD        72.9163   55.3912   38.3557 a3         1 CLA     -0.141100
     24 C1         82.6844   54.3364   34.2500 a2         1 CLA      0.023000
     25 C1A        78.5884   57.4392   37.1576 ac         1 CLA     -0.015100
     26 C1B        80.0375   60.2297   40.2835 cr         1 CLA      0.054700
     27 C1C        76.2160   59.5148   42.5411 cn         1 CLA     -0.005600
     28 C1D        74.7423   57.0540   39.2441 ap         1 CLA     -0.047300
     29 O1A        81.1391   55.6045   32.3906 o2         1 CLA     -0.610800
     30 O1D        78.6435   54.6406   34.5494 o2         1 CLA     -0.558200
     31 C2         83.3132   53.8020   35.5987 c8         1 CLA     -0.325100
     32 C2A        79.8971   57.2151   36.3337 a1         1 CLA      0.098600
     33 C2B        80.6334   61.0374   41.3149 cb         1 CLA      0.088500
     34 C2C        75.0453   59.2763   43.3953 cb         1 CLA      0.053700
     35 C2D        74.1976   56.1187   38.3048 cb         1 CLA      0.058900
     36 O2A        81.8290   55.4902   34.5655 o1         1 CLA     -0.437200
     37 O2D        77.7741   53.7401   36.5425 o1         1 CLA     -0.357600
     38 C3         84.4916   53.2089   35.7135 c5         1 CLA      0.031200
     39 C3A        81.0445   58.0470   37.0792 a1         1 CLA      0.166800
     40 C3B        79.7071   61.2363   42.3459 cb         1 CLA      0.035000
     41 C3C        74.2130   58.3995   42.7324 cb         1 CLA     -0.089900
     42 C3D        75.1965   56.1073   37.3419 cb         1 CLA     -0.035900
     43 C4         84.5571   51.7246   35.6275 a3         1 CLA     -0.053300
     44 C4A        80.1298   58.7644   38.1926 ac         1 CLA      0.001800
     45 C4B        78.5034   60.4977   41.9028 cn         1 CLA     -0.020900
     46 C4C        74.8128   58.1113   41.4821 cr         1 CLA     -0.044400
     47 C4D        76.2659   56.8933   37.7334 c6         1 CLA     -0.046000
     48 C5         85.8432   53.9951   35.9587 a2         1 CLA     -0.070400
     49 C6         85.9732   54.5763   37.4291 a2         1 CLA      0.043900
     50 C7         87.2703   55.3443   37.7749 a2         1 CLA     -0.150000
     51 C8         87.4884   55.8225   39.2188 a1         1 CLA      0.064200
     52 C9         86.4994   56.9643   39.5459 a3         1 CLA     -0.259300
     53 C10        88.9287   56.2253   39.4868 a2         1 CLA     -0.071900
     54 C11        89.2073   56.9711   40.7399 a2         1 CLA      0.014500
     55 C12        88.8510   56.0440   41.8951 a2         1 CLA     -0.112100
     56 C13        88.8607   56.6714   43.3124 a1         1 CLA      0.089200
     57 C14        88.7157   55.6095   44.4193 a3         1 CLA     -0.239100
     58 C15        87.8710   57.8498   43.5259 a2         1 CLA     -0.102200
     59 C16        88.0817   58.7345   44.7363 a2         1 CLA      0.023900
     60 C17        86.9360   59.7672   44.8309 a2         1 CLA     -0.105700
     61 C18        85.6298   59.1971   45.4416 a1         1 CLA      0.206800
     62 C19        85.9156   58.9224   46.9877 a3         1 CLA     -0.280100
     63 C20        84.3423   60.0984   45.2712 a3         1 CLA     -0.280100
     64 NC         75.9215   58.8522   41.3467 nx         1 CLA     -0.309200
     65 MG         77.3297   58.7452   39.8221 mg         1 CLA      0.895000
     66 HMD3       72.2512   56.1029   37.8544 dc         1 CLA      0.064300
     67 HMD2       73.0177   54.4087   37.8665 dc         1 CLA      0.064300
     68 HMD1       72.5290   55.2705   39.4027 dc         1 CLA      0.064300
     69 HMC3       74.2455   59.3506   45.3251 dc         1 CLA      0.052100
     70 HMC2       75.8911   60.0220   45.2524 dc         1 CLA      0.052100
     71 HMC1       74.6341   60.9811   44.6275 dc         1 CLA      0.052100
     72 HMB3       82.0222   62.5714   41.8223 dc         1 CLA      0.063600
     73 HMB2       82.7819   60.9448   41.8762 dc         1 CLA      0.063600
     74 HMB1       82.3109   61.8669   40.3525 dc         1 CLA      0.063600
     75 HMA3       82.8716   57.8371   38.2562 dc         1 CLA      0.058300
     76 HMA2       81.7682   56.5191   38.6032 dc         1 CLA      0.058300
     77 HMA1       82.6929   56.5679   37.0757 dc         1 CLA      0.058300
     78 HED3       78.8713   52.0967   37.2532 dc         1 CLA      0.079300
     79 HED2       78.8015   52.1186   35.4961 dc         1 CLA      0.079300
     80 HED1       79.9225   53.1685   36.3008 dc         1 CLA      0.079300
     81 HBC3       74.1988   56.3034   44.2600 dc         1 CLA      0.016300
     82 HBC2       72.4902   56.0872   44.4879 dc         1 CLA      0.016300
     83 HBC1       73.0436   55.5918   43.0163 dc         1 CLA      0.016300
     84 HBB2       80.7822   62.5088   45.3442 da         1 CLA      0.183000
     85 HBB1       81.8800   61.6664   44.0436 da         1 CLA      0.183000
     86 HBA2       80.6662   58.1667   32.9615 dc         1 CLA      0.029400
     87 HBA1       81.8097   57.9807   34.1989 dc         1 CLA      0.029400
     88 HAC2       72.5169   58.4567   43.9705 dc         1 CLA      0.029300
     89 HAC1       72.1595   57.8228   42.4005 dc         1 CLA      0.029300
     90 HAA2       78.8114   57.3804   34.4516 dc         1 CLA      0.028700
     91 HAA1       79.6537   58.8553   34.8896 dc         1 CLA      0.028700
     92 H203       84.1992   61.0104   45.8547 dc         1 CLA      0.065600
     93 H202       84.3578   60.3981   44.1570 dc         1 CLA      0.065600
     94 H201       83.4569   59.5056   45.4134 dc         1 CLA      0.065600
     95 H193       86.2903   59.8013   47.4087 dc         1 CLA      0.065600
     96 H192       85.0649   58.5642   47.6122 dc         1 CLA      0.065600
     97 H191       86.7042   58.1928   47.1719 dc         1 CLA      0.065600
     98 H172       87.3411   60.5947   45.4488 dc         1 CLA      0.027600
     99 H171       86.9116   60.1515   43.8551 dc         1 CLA      0.027600
    100 H162       88.2984   58.1156   45.5883 dc         1 CLA      0.002900
    101 H161       88.9563   59.3287   44.5904 dc         1 CLA      0.002900
    102 H152       87.7582   58.4587   42.6672 dc         1 CLA      0.029100
    103 H151       86.9305   57.3694   43.5619 dc         1 CLA      0.029100
    104 H143       87.6630   55.1486   44.3657 dc         1 CLA      0.063600
    105 H142       89.4433   54.7665   44.2502 dc         1 CLA      0.063600
    106 H141       88.8658   56.1663   45.3285 dc         1 CLA      0.063600
    107 H122       87.8109   55.7472   41.8674 dc         1 CLA      0.032500
    108 H121       89.4133   55.1533   41.8547 dc         1 CLA      0.032500
    109 H112       90.2928   57.1114   40.8754 dc         1 CLA      0.006600
    110 H111       88.6514   57.9069   40.8875 dc         1 CLA      0.006600
    111 H102       89.5668   55.3561   39.4647 dc         1 CLA      0.024100
    112 H101       89.3018   56.8060   38.7141 dc         1 CLA      0.024100
    113 HHD        73.2985   56.8680   40.6833 da         1 CLA      0.174300
    114 HHC        77.3167   60.8136   43.6671 da         1 CLA      0.136800
    115 HHB        81.7506   59.8608   39.0208 da         1 CLA      0.138300
    116 HBD        76.7777   56.3690   34.8136 dc         1 CLA      0.107700
    117 HAB        78.8519   62.2031   44.1747 da         1 CLA      0.155200
    118 H93        86.5254   57.2061   40.6098 dc         1 CLA      0.069500
    119 H92        86.8669   57.8276   38.9630 dc         1 CLA      0.069500
    120 H91        85.4650   56.7689   39.2463 dc         1 CLA      0.069500
    121 H8         87.3299   54.9813   39.8857 dc         1 CLA      0.029300
    122 H72        88.1289   54.7145   37.5149 dc         1 CLA      0.044400
    123 H71        87.3652   56.2154   37.1486 dc         1 CLA      0.044400
    124 H62        85.0998   55.2137   37.4410 dc         1 CLA      0.015600
    125 H61        85.8064   53.7466   38.0956 dc         1 CLA      0.015600
    126 H52        86.7007   53.4382   35.5159 dc         1 CLA      0.033200
    127 H51        85.7995   54.8651   35.3112 dc         1 CLA      0.033200
    128 H43        85.3148   51.5924   34.8128 dc         1 CLA      0.037000
    129 H42        85.1282   51.4935   36.4764 dc         1 CLA      0.037000
    130 H41        83.6708   51.1734   35.5550 dc         1 CLA      0.037000
    131 H3A        81.5709   58.8447   36.4952 dc         1 CLA      0.041100
    132 H2A        80.1814   56.1159   36.2333 dc         1 CLA      0.083100
    133 H2         82.7042   54.0855   36.5101 da         1 CLA      0.180900
    134 H18        85.4965   58.2471   44.8939 dc         1 CLA     -0.003900
    135 H13        89.8998   57.1132   43.3620 dc         1 CLA      0.019700
    136 H12        82.1472   53.6144   33.6734 dc         1 CLA      0.120400
    137 H11        83.4873   54.7296   33.5739 dc         1 CLA      0.120400
    138 C1         70.0144   62.2188   49.7072 Z1         2 LUT      0.509236
    139 C2         68.8252   61.9399   50.6173 Z2         2 LUT     -0.434695
    140 C3         67.9712   63.2039   50.9496 Z3         2 LUT      0.437453
    141 O3         67.9569   63.4372   52.3446 S1         2 LUT     -0.547129
    142 C4         68.2484   64.4667   50.1547 Z4         2 LUT     -0.468603
    143 C5         68.6974   64.1789   48.7237 Z5         2 LUT      0.279246
    144 C6         69.6593   63.2050   48.5506 Z6         2 LUT     -0.305473
    145 C7         70.1195   62.7796   47.2329 Z7         2 LUT      0.069402
    146 C8         71.2600   62.9954   46.5505 Z8         2 LUT     -0.191631
    147 C9         71.6741   62.6807   45.1798 Z9         2 LUT      0.196698
    148 C10        72.8817   63.2620   44.8526 Y1         2 LUT     -0.208611
    149 C11        73.6004   63.1244   43.5825 Y2         2 LUT      0.030784
    150 C12        74.9132   63.4522   43.3801 Y3         2 LUT     -0.220316
    151 C13        75.7873   63.1496   42.2150 Y4         2 LUT      0.215937
    152 C14        77.0294   63.7643   42.2405 Y5         2 LUT     -0.185793
    153 C15        78.1146   63.7197   41.3532 Y6         2 LUT     -0.057835
    154 C16        70.6359   60.7669   49.3038 Y7         2 LUT     -0.405615
    155 C17        71.1601   62.8150   50.5823 Y7         2 LUT     -0.405615
    156 C18        67.8494   64.8906   47.6466 Y9         2 LUT     -0.369639
    157 C19        70.9802   61.8173   44.2104 W1         2 LUT     -0.333362
    158 C20        75.3201   62.3763   41.0292 W2         2 LUT     -0.323439
    159 C21        88.9488   64.6119   35.1466 Z1         2 LUT      0.406104
    160 C22        89.6190   63.6383   34.1208 Z2         2 LUT     -0.404965
    161 C23        89.9921   64.2555   32.8215 Z3         2 LUT      0.391255
    162 O23        90.2927   63.2004   31.8985 S1         2 LUT     -0.528210
    163 C24        89.0198   65.3164   32.3251 W6         2 LUT     -0.258361
    164 C25        87.9831   65.7122   33.0184 Z5         2 LUT      0.133546
    165 C26        87.6133   65.1318   34.4171 W8         2 LUT     -0.147008
    166 C27        86.8901   66.1014   35.3176 Z7         2 LUT      0.023843
    167 C28        85.9677   65.6289   36.2091 Z8         2 LUT     -0.216987
    168 C29        85.2368   66.3464   37.2577 Z9         2 LUT      0.206524
    169 C30        84.3300   65.5737   37.8930 Y1         2 LUT     -0.215556
    170 C31        83.5150   65.8235   39.0459 Y2         2 LUT      0.025142
    171 C32        82.4576   65.0307   39.4702 Y3         2 LUT     -0.212209
    172 C33        81.4791   65.2820   40.5574 Y4         2 LUT      0.240937
    173 C34        80.3685   64.5114   40.5605 Y5         2 LUT     -0.218862
    174 C35        79.2350   64.4975   41.5100 Y6         2 LUT     -0.023547
    175 C36        89.8850   65.7381   35.6044 Y7         2 LUT     -0.393485
    176 C37        88.7340   63.7924   36.4464 Y7         2 LUT     -0.393485
    177 C38        87.0423   66.7069   32.4274 Y9         2 LUT     -0.387526
    178 C39        85.5519   67.8014   37.5745 W1         2 LUT     -0.322618
    179 C40        81.5781   66.6053   41.2277 W2         2 LUT     -0.358472
    180 H403       81.1614   66.6332   42.2278 R7         2 LUT      0.097720
    181 H402       82.6361   66.8647   41.2692 R7         2 LUT      0.097720
    182 H401       81.1402   67.4250   40.6228 R7         2 LUT      0.097720
    183 H393       86.6162   67.8956   37.7768 R4         2 LUT      0.082505
    184 H392       85.2175   68.5163   36.8451 R4         2 LUT      0.082505
    185 H391       85.0679   68.0291   38.5225 R4         2 LUT      0.082505
    186 H383       85.9874   66.5386   32.7144 R1         2 LUT      0.104030
    187 H382       87.2299   67.8191   32.5986 R1         2 LUT      0.104030
    188 H381       87.0570   66.5841   31.3155 R1         2 LUT      0.104030
    189 H373       89.6992   63.5108   36.9433 T4         2 LUT      0.089537
    190 H372       88.2170   64.3494   37.2912 T4         2 LUT      0.089537
    191 H371       88.0165   62.9392   36.1181 T4         2 LUT      0.089537
    192 H363       89.4552   66.2557   36.4715 T4         2 LUT      0.089537
    193 H362       90.8931   65.3347   35.9078 T4         2 LUT      0.089537
    194 H361       89.9960   66.4604   34.8452 T4         2 LUT      0.089537
    195 H222       90.6123   63.4222   34.4999 U2         2 LUT      0.127376
    196 H221       89.1077   62.7368   33.9092 U2         2 LUT      0.127376
    197 H203       76.1674   61.7831   40.6331 R7         2 LUT      0.087068
    198 H202       74.5551   61.6151   41.3366 R7         2 LUT      0.087068
    199 H201       75.0928   63.0063   40.2494 R7         2 LUT      0.087068
    200 H193       71.7089   61.0819   43.9380 R4         2 LUT      0.089716
    201 H192       70.1264   61.2625   44.5713 R4         2 LUT      0.089716
    202 H191       70.6639   62.3726   43.3090 R4         2 LUT      0.089716
    203 H183       68.1459   64.4360   46.6472 R1         2 LUT      0.094572
    204 H182       66.8043   64.6685   47.7644 R1         2 LUT      0.094572
    205 H181       68.1039   65.8968   47.5875 R1         2 LUT      0.094572
    206 H173       70.8877   63.8262   50.8082 T4         2 LUT      0.093752
    207 H172       71.2857   62.1942   51.4485 T4         2 LUT      0.093752
    208 H171       72.0346   62.7686   49.9368 T4         2 LUT      0.093752
    209 H163       71.6375   60.6935   48.8030 T4         2 LUT      0.093752
    210 H162       70.7302   60.2452   50.3075 T4         2 LUT      0.093752
    211 H161       69.9070   60.2241   48.7035 T4         2 LUT      0.093752
    212 HO3        67.1511   62.9953   52.6952 Q1         2 LUT      0.300121
    213 H8         71.8230   63.6694   47.1434 U7         2 LUT      0.080784
    214 H7         69.3476   62.2739   46.6607 U6         2 LUT      0.042190
    215 H42        67.3161   65.1183   50.3767 U5         2 LUT      0.145166
    216 H41        69.0351   64.9814   50.6102 U5         2 LUT      0.145166
    217 H35        79.1777   65.1456   42.3567 T3         2 LUT      0.077919
    218 H34        80.3669   63.7349   39.8267 T2         2 LUT      0.073626
    219 H32        82.2482   64.0930   39.0028 T1         2 LUT      0.092510
    220 H31        83.6774   66.7734   39.5682 U9         2 LUT      0.070048
    221 H30        84.2237   64.5161   37.5071 U8         2 LUT      0.085442
    222 H3         67.0096   62.9206   50.5350 U3         2 LUT     -0.031596
    223 H28        85.7309   64.5522   36.1262 U7         2 LUT      0.084728
    224 H27        87.2708   67.1359   35.4621 U6         2 LUT      0.087291
    225 H26        87.1770   64.2170   34.0161 Q6         2 LUT      0.075325
    226 H24        89.2260   65.8934   31.4338 Q5         2 LUT      0.094482
    227 H23        90.8953   64.8607   33.0070 U3         2 LUT     -0.024869
    228 H22        68.1208   61.2699   50.1325 U2         2 LUT      0.127376
    229 H21        69.1030   61.3976   51.5364 U2         2 LUT      0.127376
    230 H15        78.0453   63.0823   40.5448 T3         2 LUT      0.093200
    231 H14        77.2319   64.4407   43.0937 T2         2 LUT      0.068865
    232 H12        75.2733   64.0932   44.1992 T1         2 LUT      0.095507
    233 H11        73.1114   62.5148   42.8162 U9         2 LUT      0.068930
    234 H10        73.4676   63.7559   45.6110 U8         2 LUT      0.083911
    235 H1         90.8016   63.5677   31.1422 Q1         2 LUT      0.297311
@<TRIPOS>BOND
    1     6     1 1
    2     7     2 1
    3     8     3 1
    4     9     4 1
    5    11     4 1
    6    12     6 1
    7    13     9 1
    8    16     9 1
    9    25     5 1
   10    25    16 1
   11    26    10 1
   12    26    17 1
   13    27    18 1
   14    28    14 1
   15    28    19 1
   16    29    12 1
   17    30    13 1
   18    31    24 1
   19    32     1 1
   20    32    25 1
   21    33    21 1
   22    33    26 1
   23    34    22 1
   24    34    27 1
   25    35    23 1
   26    35    28 1
   27    36    12 1
   28    36    24 1
   29    37    13 1
   30    37    15 1
   31    38    31 1
   32    39    20 1
   33    39    32 1
   34    40     2 1
   35    40    33 1
   36    41     3 1
   37    41    34 1
   38    42     4 1
   39    42    35 1
   40    43    38 1
   41    44     5 1
   42    44    17 1
   43    44    39 1
   44    45    10 1
   45    45    18 1
   46    45    40 1
   47    46    19 1
   48    46    41 1
   49    47    14 1
   50    47    16 1
   51    47    42 1
   52    48    38 1
   53    49    48 1
   54    50    49 1
   55    51    50 1
   56    52    51 1
   57    53    51 1
   58    54    53 1
   59    55    54 1
   60    56    55 1
   61    57    56 1
   62    58    56 1
   63    59    58 1
   64    60    59 1
   65    61    60 1
   66    62    61 1
   67    63    61 1
   68    64    27 1
   69    64    46 1
   70    65     5 1
   71    65    10 1
   72    65    64 1
   73    65    14 1
   74    66    23 1
   75    67    23 1
   76    68    23 1
   77    69    22 1
   78    70    22 1
   79    71    22 1
   80    72    21 1
   81    73    21 1
   82    74    21 1
   83    75    20 1
   84    76    20 1
   85    77    20 1
   86    78    15 1
   87    79    15 1
   88    80    15 1
   89    81     8 1
   90    82     8 1
   91    83     8 1
   92    84     7 1
   93    85     7 1
   94    86     6 1
   95    87     6 1
   96    88     3 1
   97    89     3 1
   98    90     1 1
   99    91     1 1
  100    92    63 1
  101    93    63 1
  102    94    63 1
  103    95    62 1
  104    96    62 1
  105    97    62 1
  106    98    60 1
  107    99    60 1
  108   100    59 1
  109   101    59 1
  110   102    58 1
  111   103    58 1
  112   104    57 1
  113   105    57 1
  114   106    57 1
  115   107    55 1
  116   108    55 1
  117   109    54 1
  118   110    54 1
  119   111    53 1
  120   112    53 1
  121   113    19 1
  122   114    18 1
  123   115    17 1
  124   116     9 1
  125   117     2 1
  126   118    52 1
  127   119    52 1
  128   120    52 1
  129   121    51 1
  130   122    50 1
  131   123    50 1
  132   124    49 1
  133   125    49 1
  134   126    48 1
  135   127    48 1
  136   128    43 1
  137   129    43 1
  138   130    43 1
  139   131    39 1
  140   132    32 1
  141   133    31 1
  142   134    61 1
  143   135    56 1
  144   136    24 1
  145   137    24 1
  146   139   138 1
  147   140   139 1
  148   141   140 1
  149   142   140 1
  150   143   142 1
  151   144   138 1
  152   144   143 1
  153   145   144 1
  154   146   145 1
  155   147   146 1
  156   148   147 1
  157   149   148 1
  158   150   149 1
  159   151   150 1
  160   152   151 1
  161   153   152 1
  162   154   138 1
  163   155   138 1
  164   156   143 1
  165   157   147 1
  166   158   151 1
  167   160   159 1
  168   161   160 1
  169   162   161 1
  170   163   161 1
  171   164   163 1
  172   165   159 1
  173   165   164 1
  174   166   165 1
  175   167   166 1
  176   168   167 1
  177   169   168 1
  178   170   169 1
  179   171   170 1
  180   172   171 1
  181   173   172 1
  182   174   153 1
  183   174   173 1
  184   175   159 1
  185   176   159 1
  186   177   164 1
  187   178   168 1
  188   179   172 1
  189   180   179 1
  190   181   179 1
  191   182   179 1
  192   183   178 1
  193   184   178 1
  194   185   178 1
  195   186   177 1
  196   187   177 1
  197   188   177 1
  198   189   176 1
  199   190   176 1
  200   191   176 1
  201   192   175 1
  202   193   175 1
  203   194   175 1
  204   195   160 1
  205   196   160 1
  206   197   158 1
  207   198   158 1
  208   199   158 1
  209   200   157 1
  210   201   157 1
  211   202   157 1
  212   203   156 1
  213   204   156 1
  214   205   156 1
  215   206   155 1
  216   207   155 1
  217   208   155 1
  218   209   154 1
  219   210   154 1
  220   211   154 1
  221   212   141 1
  222   213   146 1
  223   214   145 1
  224   215   142 1
  225   216   142 1
  226   217   174 1
  227   218   173 1
  228   219   171 1
  229   220   170 1
  230   221   169 1
  231   222   140 1
  232   223   167 1
  233   224   166 1
  234   225   165 1
  235   226   163 1
  236   227   161 1
  237   228   139 1
  238   229   139 1
  239   230   153 1
  240   231   152 1
  241   232   150 1
  242   233   149 1
  243   234   148 1
  244   235   162 1
  245   65    153 1
  246   65    174 1
@<TRIPOS>SUBSTRUCTURE
      1 CLA               1 ****               0 ****  **** 
      2 LUT             138 ****               0 ****  **** 
