@<TRIPOS>MOLECULE
Cpptraj generated mol2 file.
  235   246     2     0     0
SMALL
USER_CHARGES


@<TRIPOS>ATOM
      1 CAA        79.6381   58.4703   35.1639 a2         1 CLA     -0.055900
      2 CAB        80.4618   62.4779   43.9345 c8         1 CLA     -0.148500
      3 CAC        73.3166   58.6399   44.0186 a2         1 CLA     -0.012600
      4 CAD        76.0012   55.5963   36.7785 ck         1 CLA      0.398800
      5 NA         79.0481   58.9101   38.5848 ns         1 CLA     -0.225500
      6 CBA        80.7323   58.1218   34.1152 a2         1 CLA     -0.135000
      7 CBB        81.5882   62.3387   44.6412 c0         1 CLA     -0.395200
      8 CBC        73.5442   57.1934   44.4605 a3         1 CLA     -0.037700
      9 CBD        77.3265   56.1928   36.3693 a1         1 CLA     -0.053900
     10 NB         78.9689   60.4748   41.1095 nm         1 CLA     -0.295700
     11 OBD        75.3908   54.7298   36.1209 o2         1 CLA     -0.494600
     12 CGA        81.2282   56.7134   33.8230 c4         1 CLA      0.827000
     13 CGD        78.3816   55.1108   36.3587 c4         1 CLA      0.655300
     14 ND         76.2076   58.0560   39.3198 nm         1 CLA     -0.291600
     15 CED        79.4468   53.4967   37.8568 a3         1 CLA      0.005400
     16 CHA        77.6249   57.3119   37.3462 cs         1 CLA     -0.123800
     17 CHB        80.8612   60.2351   39.4801 aa         1 CLA     -0.291900
     18 CHC        77.7895   60.7977   43.2317 aa         1 CLA     -0.090400
     19 CHD        74.5257   57.9164   41.0930 aa         1 CLA     -0.052000
     20 CMA        82.3595   57.9006   37.9513 a3         1 CLA     -0.230700
     21 CMB        82.4426   61.9508   41.4349 a3         1 CLA     -0.180800
     22 CMC        75.7117   60.2425   45.4182 a3         1 CLA     -0.134000
     23 CMD        73.2405   55.8086   39.1510 a3         1 CLA     -0.141100
     24 C1         82.4382   54.8227   34.9203 a2         1 CLA      0.023000
     25 C1A        78.8206   58.0359   37.5263 ac         1 CLA     -0.015100
     26 C1B        80.2197   60.8653   40.5907 cr         1 CLA      0.054700
     27 C1C        76.6203   60.0970   42.9945 cn         1 CLA     -0.005600
     28 C1D        74.9929   57.6097   39.7592 ap         1 CLA     -0.047300
     29 O1A        80.9431   55.9231   32.9143 o2         1 CLA     -0.610800
     30 O1D        79.0458   54.6143   35.4056 o2         1 CLA     -0.558200
     31 C2         82.8121   54.5223   36.3671 c8         1 CLA     -0.325100
     32 C2A        80.0360   57.9663   36.5933 a1         1 CLA      0.098600
     33 C2B        81.0179   61.5877   41.5500 cb         1 CLA      0.088500
     34 C2C        75.5724   59.8831   43.9480 cb         1 CLA      0.053700
     35 C2D        74.5137   56.6331   38.8284 cb         1 CLA      0.058900
     36 O2A        82.0738   56.2863   34.8190 o1         1 CLA     -0.437200
     37 O2D        78.5667   54.6668   37.6165 o1         1 CLA     -0.357600
     38 C3         84.0326   54.0921   36.5997 c5         1 CLA      0.031200
     39 C3A        81.0942   58.7408   37.3977 a1         1 CLA      0.166800
     40 C3B        80.1683   61.7683   42.6428 cb         1 CLA      0.035000
     41 C3C        74.5758   59.2041   43.3452 cb         1 CLA     -0.089900
     42 C3D        75.5616   56.4063   37.8685 cb         1 CLA     -0.035900
     43 C4         84.3118   52.6031   36.6621 a3         1 CLA     -0.053300
     44 C4A        80.2592   59.4285   38.5414 ac         1 CLA      0.001800
     45 C4B        78.8381   61.0367   42.3660 cn         1 CLA     -0.020900
     46 C4C        75.0839   58.8175   42.0243 cr         1 CLA     -0.044400
     47 C4D        76.4986   57.4250   38.1603 c6         1 CLA     -0.046000
     48 C5         85.2095   55.0264   36.7577 a2         1 CLA     -0.070400
     49 C6         85.2544   55.4735   38.3044 a2         1 CLA      0.043900
     50 C7         86.4322   56.3812   38.6458 a2         1 CLA     -0.150000
     51 C8         86.3015   56.8084   40.1509 a1         1 CLA      0.064200
     52 C9         85.2589   57.9361   40.3220 a3         1 CLA     -0.259300
     53 C10        87.7014   57.1434   40.7880 a2         1 CLA     -0.071900
     54 C11        87.6124   57.5975   42.2562 a2         1 CLA      0.014500
     55 C12        88.7067   57.1187   43.1347 a2         1 CLA     -0.112100
     56 C13        88.7573   57.6858   44.5802 a1         1 CLA      0.089200
     57 C14        89.9815   57.1970   45.3863 a3         1 CLA     -0.239100
     58 C15        87.4570   57.2758   45.3711 a2         1 CLA     -0.102200
     59 C16        87.3426   57.8638   46.8660 a2         1 CLA      0.023900
     60 C17        85.8397   57.6864   47.4947 a2         1 CLA     -0.105700
     61 C18        85.5405   58.3485   48.9442 a1         1 CLA      0.206800
     62 C19        85.1663   59.8799   48.7681 a3         1 CLA     -0.280100
     63 C20        84.4801   57.7137   49.7760 a3         1 CLA     -0.280100
     64 NC         76.2262   59.5276   41.7611 nx         1 CLA     -0.309200
     65 MG         77.5662   59.3320   40.1015 mg         1 CLA      0.895000
     66 HMD3       72.4888   55.9893   38.4129 dc         1 CLA      0.064300
     67 HMD2       73.4979   54.6877   39.1725 dc         1 CLA      0.064300
     68 HMD1       72.8032   56.0957   40.0878 dc         1 CLA      0.064300
     69 HMC3       74.7925   60.0025   45.9323 dc         1 CLA      0.052100
     70 HMC2       76.5089   59.5910   45.8699 dc         1 CLA      0.052100
     71 HMC1       75.9729   61.3079   45.4644 dc         1 CLA      0.052100
     72 HMB3       82.5497   62.3822   40.4543 dc         1 CLA      0.063600
     73 HMB2       82.8253   62.6968   42.1809 dc         1 CLA      0.063600
     74 HMB1       83.0627   61.0419   41.4358 dc         1 CLA      0.063600
     75 HMA3       83.1177   58.6068   38.3662 dc         1 CLA      0.058300
     76 HMA2       82.0316   57.0881   38.6379 dc         1 CLA      0.058300
     77 HMA1       82.9735   57.4704   37.1668 dc         1 CLA      0.058300
     78 HED3       78.8414   52.6613   37.5371 dc         1 CLA      0.079300
     79 HED2       80.4676   53.5195   37.4819 dc         1 CLA      0.079300
     80 HED1       79.4341   53.3048   38.9363 dc         1 CLA      0.079300
     81 HBC3       73.2495   56.4310   43.6535 dc         1 CLA      0.016300
     82 HBC2       74.6395   56.9719   44.7797 dc         1 CLA      0.016300
     83 HBC1       72.9446   57.1003   45.3752 dc         1 CLA      0.016300
     84 HBB2       81.7565   62.9953   45.5617 da         1 CLA      0.183000
     85 HBB1       82.4758   61.6396   44.3616 da         1 CLA      0.183000
     86 HBA2       80.3371   58.4676   33.1438 dc         1 CLA      0.029400
     87 HBA1       81.5996   58.7999   34.2627 dc         1 CLA      0.029400
     88 HAC2       73.0699   59.1774   44.9810 dc         1 CLA      0.029300
     89 HAC1       72.5131   58.4124   43.3383 dc         1 CLA      0.029300
     90 HAA2       78.8440   57.9121   34.6635 dc         1 CLA      0.028700
     91 HAA1       79.3248   59.5622   35.2101 dc         1 CLA      0.028700
     92 H203       83.5003   58.0146   49.3782 dc         1 CLA      0.065600
     93 H202       84.5667   56.6527   49.7831 dc         1 CLA      0.065600
     94 H201       84.5280   58.1782   50.8149 dc         1 CLA      0.065600
     95 H193       85.9005   60.2583   48.1436 dc         1 CLA      0.065600
     96 H192       84.2087   59.9271   48.2579 dc         1 CLA      0.065600
     97 H191       85.1154   60.3461   49.7509 dc         1 CLA      0.065600
     98 H172       85.1921   58.0232   46.7067 dc         1 CLA      0.027600
     99 H171       85.7186   56.6533   47.7488 dc         1 CLA      0.027600
    100 H162       88.0842   57.3526   47.4974 dc         1 CLA      0.002900
    101 H161       87.5567   58.9100   46.7363 dc         1 CLA      0.002900
    102 H152       86.5454   57.5333   44.8590 dc         1 CLA      0.029100
    103 H151       87.3929   56.1430   45.4441 dc         1 CLA      0.029100
    104 H143       90.8278   57.3223   44.6688 dc         1 CLA      0.063600
    105 H142       90.1099   57.8006   46.2658 dc         1 CLA      0.063600
    106 H141       89.8911   56.1415   45.5202 dc         1 CLA      0.063600
    107 H122       88.7146   56.0138   43.1622 dc         1 CLA      0.032500
    108 H121       89.6182   57.5175   42.6635 dc         1 CLA      0.032500
    109 H112       87.4525   58.7709   42.2513 dc         1 CLA      0.006600
    110 H111       86.7067   57.1147   42.6570 dc         1 CLA      0.006600
    111 H102       88.3656   56.2923   40.5769 dc         1 CLA      0.024100
    112 H101       87.9712   57.9999   40.1874 dc         1 CLA      0.024100
    113 HHD        73.5414   57.6510   41.5110 da         1 CLA      0.174300
    114 HHC        77.7254   61.2623   44.2476 da         1 CLA      0.136800
    115 HHB        81.8938   60.5411   39.2673 da         1 CLA      0.138300
    116 HBD        77.2867   56.5103   35.3602 dc         1 CLA      0.107700
    117 HAB        79.6783   63.1744   44.2353 da         1 CLA      0.155200
    118 H93        85.6123   58.8010   39.7547 dc         1 CLA      0.069500
    119 H92        84.3149   57.6021   39.9931 dc         1 CLA      0.069500
    120 H91        85.0927   58.2859   41.3442 dc         1 CLA      0.069500
    121 H8         85.8670   55.9636   40.7424 dc         1 CLA      0.029300
    122 H72        87.3270   55.7440   38.5897 dc         1 CLA      0.044400
    123 H71        86.4040   57.2682   38.0632 dc         1 CLA      0.044400
    124 H62        84.3544   55.9564   38.6791 dc         1 CLA      0.015600
    125 H61        85.3821   54.5922   38.9144 dc         1 CLA      0.015600
    126 H52        86.2145   54.4515   36.5676 dc         1 CLA      0.033200
    127 H51        85.1439   55.9067   36.0508 dc         1 CLA      0.033200
    128 H43        84.9423   52.2932   37.4394 dc         1 CLA      0.037000
    129 H42        83.3541   52.1071   36.7317 dc         1 CLA      0.037000
    130 H41        84.7846   52.4094   35.7148 dc         1 CLA      0.037000
    131 H3A        81.4500   59.6006   36.8690 dc         1 CLA      0.041100
    132 H2A        80.2845   56.9160   36.5575 dc         1 CLA      0.083100
    133 H2         82.2852   54.9005   37.2412 da         1 CLA      0.180900
    134 H18        86.5309   58.3078   49.4000 dc         1 CLA     -0.003900
    135 H13        88.8298   58.7630   44.4975 dc         1 CLA      0.019700
    136 H12        81.5761   54.1632   34.6947 dc         1 CLA      0.120400
    137 H11        83.2107   54.4785   34.2591 dc         1 CLA      0.120400
    138 C1         69.8545   61.3493   50.4409 Z1         2 LUT      0.509236
    139 C2         68.4735   61.2522   51.0749 Z2         2 LUT     -0.434695
    140 C3         67.7072   62.5345   51.4147 Z3         2 LUT      0.437453
    141 O3         68.0624   62.8613   52.7248 S1         2 LUT     -0.547129
    142 C4         68.1159   63.6870   50.5683 Z4         2 LUT     -0.468603
    143 C5         68.8249   63.2911   49.2981 Z5         2 LUT      0.279246
    144 C6         69.7566   62.3094   49.2352 Z6         2 LUT     -0.305473
    145 C7         70.2315   61.8306   47.9785 Z7         2 LUT      0.069402
    146 C8         71.2212   62.4238   47.2757 Z8         2 LUT     -0.191631
    147 C9         71.7222   62.1260   45.9142 Z9         2 LUT      0.196698
    148 C10        72.7962   62.8011   45.4649 Y1         2 LUT     -0.208611
    149 C11        73.4491   62.7768   44.2388 Y2         2 LUT      0.030784
    150 C12        74.6700   63.3253   44.0547 Y3         2 LUT     -0.220316
    151 C13        75.5042   63.3721   42.8350 Y4         2 LUT      0.215937
    152 C14        76.7425   64.0506   42.8935 Y5         2 LUT     -0.185793
    153 C15        77.7974   64.0848   41.8461 Y6         2 LUT     -0.057835
    154 C16        70.4411   59.9140   50.3243 Y7         2 LUT     -0.405615
    155 C17        70.8661   61.9691   51.4898 Y7         2 LUT     -0.405615
    156 C18        68.2570   64.0335   48.1432 Y9         2 LUT     -0.369639
    157 C19        70.9053   61.2258   44.9846 W1         2 LUT     -0.333362
    158 C20        74.7891   63.1812   41.5630 W2         2 LUT     -0.323439
    159 C21        88.7861   65.4858   35.5294 Z1         2 LUT      0.406104
    160 C22        89.4989   64.8871   34.2371 Z2         2 LUT     -0.404965
    161 C23        89.6489   65.8493   33.0522 Z3         2 LUT      0.391255
    162 O23        90.3323   65.2224   31.9171 S1         2 LUT     -0.528210
    163 C24        88.3108   66.5205   32.7633 W6         2 LUT     -0.258361
    164 C25        87.3051   66.6634   33.6743 Z5         2 LUT      0.133546
    165 C26        87.3169   65.9523   35.0765 W8         2 LUT     -0.147008
    166 C27        86.4975   66.6575   36.1827 Z7         2 LUT      0.023843
    167 C28        85.4612   66.1295   36.8626 Z8         2 LUT     -0.216987
    168 C29        84.8293   66.6272   38.0750 Z9         2 LUT      0.206524
    169 C30        83.9687   65.7661   38.6765 Y1         2 LUT     -0.215556
    170 C31        83.3304   65.9770   39.9330 Y2         2 LUT      0.025142
    171 C32        82.1518   65.3447   40.1720 Y3         2 LUT     -0.212209
    172 C33        81.2564   65.4255   41.3545 Y4         2 LUT      0.240937
    173 C34        79.9538   64.9549   41.1429 Y5         2 LUT     -0.218862
    174 C35        78.8669   64.8509   42.1055 Y6         2 LUT     -0.023547
    175 C36        89.5695   66.8148   35.8491 Y7         2 LUT     -0.393485
    176 C37        89.0469   64.5855   36.6863 Y7         2 LUT     -0.393485
    177 C38        86.0914   67.5461   33.4419 Y9         2 LUT     -0.387526
    178 C39        85.2205   67.9827   38.6005 W1         2 LUT     -0.322618
    179 C40        81.7737   65.9355   42.6514 W2         2 LUT     -0.358472
    180 H403       81.7604   67.0450   42.5871 R7         2 LUT      0.097720
    181 H402       81.1345   65.6112   43.4477 R7         2 LUT      0.097720
    182 H401       82.7508   65.6357   42.9424 R7         2 LUT      0.097720
    183 H393       85.8366   68.6136   37.8944 R4         2 LUT      0.082505
    184 H392       84.2991   68.5337   38.6951 R4         2 LUT      0.082505
    185 H391       85.7055   67.8391   39.5250 R4         2 LUT      0.082505
    186 H383       85.9264   67.6000   32.4063 R1         2 LUT      0.104030
    187 H382       85.1879   67.1272   33.9785 R1         2 LUT      0.104030
    188 H381       86.3224   68.6116   33.6443 R1         2 LUT      0.104030
    189 H373       90.1577   64.4762   36.8932 T4         2 LUT      0.089537
    190 H372       88.5638   64.8084   37.5997 T4         2 LUT      0.089537
    191 H371       88.7071   63.5889   36.4340 T4         2 LUT      0.089537
    192 H363       89.5144   67.7033   35.2125 T4         2 LUT      0.089537
    193 H362       89.1738   67.0775   36.8214 T4         2 LUT      0.089537
    194 H361       90.5723   66.4963   36.0705 T4         2 LUT      0.089537
    195 H222       90.5129   64.4311   34.4210 U2         2 LUT      0.127376
    196 H221       88.8825   64.1064   33.8691 U2         2 LUT      0.127376
    197 H203       73.8366   63.7832   41.5458 R7         2 LUT      0.087068
    198 H202       75.3755   63.5642   40.7422 R7         2 LUT      0.087068
    199 H201       74.6243   62.1370   41.3226 R7         2 LUT      0.087068
    200 H193       70.9003   60.1410   45.1166 R4         2 LUT      0.089716
    201 H192       69.7844   61.4002   45.0873 R4         2 LUT      0.089716
    202 H191       71.2315   61.3036   43.9759 R4         2 LUT      0.089716
    203 H183       68.5864   63.6971   47.1332 R1         2 LUT      0.094572
    204 H182       67.2015   63.9687   48.1954 R1         2 LUT      0.094572
    205 H181       68.4522   65.1435   48.2015 R1         2 LUT      0.094572
    206 H173       70.6006   63.0164   51.5943 T4         2 LUT      0.093752
    207 H172       70.8802   61.3690   52.4204 T4         2 LUT      0.093752
    208 H171       71.8478   62.1837   51.0516 T4         2 LUT      0.093752
    209 H163       71.5285   59.8192   50.1666 T4         2 LUT      0.093752
    210 H162       70.1895   59.4033   51.2866 T4         2 LUT      0.093752
    211 H161       69.9982   59.3206   49.5438 T4         2 LUT      0.093752
    212 HO3        67.3073   62.5083   53.3009 Q1         2 LUT      0.300121
    213 H8         71.7502   63.1937   47.8268 U7         2 LUT      0.080784
    214 H7         69.6384   61.1213   47.4188 U6         2 LUT      0.042190
    215 H42        67.2766   64.3328   50.3863 U5         2 LUT      0.145166
    216 H41        68.7314   64.3829   51.0919 U5         2 LUT      0.145166
    217 H35        78.8593   65.4668   42.9531 T3         2 LUT      0.077919
    218 H34        79.7025   64.5684   40.1822 T2         2 LUT      0.073626
    219 H32        81.7506   64.7680   39.3136 T1         2 LUT      0.092510
    220 H31        83.7304   66.7924   40.5885 U9         2 LUT      0.070048
    221 H30        83.6872   64.7793   38.2063 U8         2 LUT      0.085442
    222 H3         66.6074   62.2859   51.3003 U3         2 LUT     -0.031596
    223 H28        85.2105   65.1046   36.5558 U7         2 LUT      0.084728
    224 H27        86.9143   67.5975   36.2883 U6         2 LUT      0.087291
    225 H26        86.6718   65.0390   34.9296 Q6         2 LUT      0.075325
    226 H24        88.2384   67.0199   31.7827 Q5         2 LUT      0.094482
    227 H23        90.2815   66.6159   33.5213 U3         2 LUT     -0.024869
    228 H22        67.8558   60.7256   50.3630 U2         2 LUT      0.127376
    229 H21        68.5540   60.6293   51.9913 U2         2 LUT      0.127376
    230 H15        77.7551   63.5135   40.9353 T3         2 LUT      0.093200
    231 H14        77.0365   64.4729   43.8805 T2         2 LUT      0.068865
    232 H12        75.0541   63.8238   44.9480 T1         2 LUT      0.095507
    233 H11        72.9628   62.2484   43.3747 U9         2 LUT      0.068930
    234 H10        73.2840   63.4611   46.1829 U8         2 LUT      0.083911
    235 H1         89.6770   64.6088   31.5637 Q1         2 LUT      0.297311
@<TRIPOS>BOND
    1     6     1 1
    2     7     2 1
    3     8     3 1
    4     9     4 1
    5    11     4 1
    6    12     6 1
    7    13     9 1
    8    16     9 1
    9    25     5 1
   10    25    16 1
   11    26    10 1
   12    26    17 1
   13    27    18 1
   14    28    14 1
   15    28    19 1
   16    29    12 1
   17    30    13 1
   18    31    24 1
   19    32     1 1
   20    32    25 1
   21    33    21 1
   22    33    26 1
   23    34    22 1
   24    34    27 1
   25    35    23 1
   26    35    28 1
   27    36    12 1
   28    36    24 1
   29    37    13 1
   30    37    15 1
   31    38    31 1
   32    39    20 1
   33    39    32 1
   34    40     2 1
   35    40    33 1
   36    41     3 1
   37    41    34 1
   38    42     4 1
   39    42    35 1
   40    43    38 1
   41    44     5 1
   42    44    17 1
   43    44    39 1
   44    45    10 1
   45    45    18 1
   46    45    40 1
   47    46    19 1
   48    46    41 1
   49    47    14 1
   50    47    16 1
   51    47    42 1
   52    48    38 1
   53    49    48 1
   54    50    49 1
   55    51    50 1
   56    52    51 1
   57    53    51 1
   58    54    53 1
   59    55    54 1
   60    56    55 1
   61    57    56 1
   62    58    56 1
   63    59    58 1
   64    60    59 1
   65    61    60 1
   66    62    61 1
   67    63    61 1
   68    64    27 1
   69    64    46 1
   70    65     5 1
   71    65    10 1
   72    65    64 1
   73    65    14 1
   74    66    23 1
   75    67    23 1
   76    68    23 1
   77    69    22 1
   78    70    22 1
   79    71    22 1
   80    72    21 1
   81    73    21 1
   82    74    21 1
   83    75    20 1
   84    76    20 1
   85    77    20 1
   86    78    15 1
   87    79    15 1
   88    80    15 1
   89    81     8 1
   90    82     8 1
   91    83     8 1
   92    84     7 1
   93    85     7 1
   94    86     6 1
   95    87     6 1
   96    88     3 1
   97    89     3 1
   98    90     1 1
   99    91     1 1
  100    92    63 1
  101    93    63 1
  102    94    63 1
  103    95    62 1
  104    96    62 1
  105    97    62 1
  106    98    60 1
  107    99    60 1
  108   100    59 1
  109   101    59 1
  110   102    58 1
  111   103    58 1
  112   104    57 1
  113   105    57 1
  114   106    57 1
  115   107    55 1
  116   108    55 1
  117   109    54 1
  118   110    54 1
  119   111    53 1
  120   112    53 1
  121   113    19 1
  122   114    18 1
  123   115    17 1
  124   116     9 1
  125   117     2 1
  126   118    52 1
  127   119    52 1
  128   120    52 1
  129   121    51 1
  130   122    50 1
  131   123    50 1
  132   124    49 1
  133   125    49 1
  134   126    48 1
  135   127    48 1
  136   128    43 1
  137   129    43 1
  138   130    43 1
  139   131    39 1
  140   132    32 1
  141   133    31 1
  142   134    61 1
  143   135    56 1
  144   136    24 1
  145   137    24 1
  146   139   138 1
  147   140   139 1
  148   141   140 1
  149   142   140 1
  150   143   142 1
  151   144   138 1
  152   144   143 1
  153   145   144 1
  154   146   145 1
  155   147   146 1
  156   148   147 1
  157   149   148 1
  158   150   149 1
  159   151   150 1
  160   152   151 1
  161   153   152 1
  162   154   138 1
  163   155   138 1
  164   156   143 1
  165   157   147 1
  166   158   151 1
  167   160   159 1
  168   161   160 1
  169   162   161 1
  170   163   161 1
  171   164   163 1
  172   165   159 1
  173   165   164 1
  174   166   165 1
  175   167   166 1
  176   168   167 1
  177   169   168 1
  178   170   169 1
  179   171   170 1
  180   172   171 1
  181   173   172 1
  182   174   153 1
  183   174   173 1
  184   175   159 1
  185   176   159 1
  186   177   164 1
  187   178   168 1
  188   179   172 1
  189   180   179 1
  190   181   179 1
  191   182   179 1
  192   183   178 1
  193   184   178 1
  194   185   178 1
  195   186   177 1
  196   187   177 1
  197   188   177 1
  198   189   176 1
  199   190   176 1
  200   191   176 1
  201   192   175 1
  202   193   175 1
  203   194   175 1
  204   195   160 1
  205   196   160 1
  206   197   158 1
  207   198   158 1
  208   199   158 1
  209   200   157 1
  210   201   157 1
  211   202   157 1
  212   203   156 1
  213   204   156 1
  214   205   156 1
  215   206   155 1
  216   207   155 1
  217   208   155 1
  218   209   154 1
  219   210   154 1
  220   211   154 1
  221   212   141 1
  222   213   146 1
  223   214   145 1
  224   215   142 1
  225   216   142 1
  226   217   174 1
  227   218   173 1
  228   219   171 1
  229   220   170 1
  230   221   169 1
  231   222   140 1
  232   223   167 1
  233   224   166 1
  234   225   165 1
  235   226   163 1
  236   227   161 1
  237   228   139 1
  238   229   139 1
  239   230   153 1
  240   231   152 1
  241   232   150 1
  242   233   149 1
  243   234   148 1
  244   235   162 1
  245   65    153 1
  246   65    174 1
@<TRIPOS>SUBSTRUCTURE
      1 CLA               1 ****               0 ****  **** 
      2 LUT             138 ****               0 ****  **** 
