@<TRIPOS>MOLECULE
Cpptraj generated mol2 file.
  235   246     2     0     0
SMALL
USER_CHARGES


@<TRIPOS>ATOM
      1 CAA        79.9246   58.8086   34.3889 a2         1 CLA     -0.055900
      2 CAB        79.5290   62.6721   43.2608 c8         1 CLA     -0.148500
      3 CAC        72.9821   58.0681   42.9700 a2         1 CLA     -0.012600
      4 CAD        75.6510   56.2601   35.3385 ck         1 CLA      0.398800
      5 NA         78.7410   59.3099   37.7324 ns         1 CLA     -0.225500
      6 CBA        81.2972   58.4697   33.6247 a2         1 CLA     -0.135000
      7 CBB        80.5961   62.4752   44.0823 c0         1 CLA     -0.395200
      8 CBC        73.0862   56.5926   42.6255 a3         1 CLA     -0.037700
      9 CBD        77.1768   56.7835   35.1461 a1         1 CLA     -0.053900
     10 NB         78.5200   60.8004   40.2045 nm         1 CLA     -0.295700
     11 OBD        75.0902   55.4961   34.5571 o2         1 CLA     -0.494600
     12 CGA        81.7046   57.0605   33.2973 c4         1 CLA      0.827000
     13 CGD        78.1569   55.6621   35.0159 c4         1 CLA      0.655300
     14 ND         75.9586   58.1985   38.2258 nm         1 CLA     -0.291600
     15 CED        78.7655   53.5093   35.7096 a3         1 CLA      0.005400
     16 CHA        77.4091   57.8005   36.2986 cs         1 CLA     -0.123800
     17 CHB        80.4373   60.7040   38.7043 aa         1 CLA     -0.291900
     18 CHC        77.1346   60.9974   42.2392 aa         1 CLA     -0.090400
     19 CHD        74.0814   58.0537   39.8339 aa         1 CLA     -0.052000
     20 CMA        81.8826   58.2324   37.6693 a3         1 CLA     -0.230700
     21 CMB        81.9223   62.3345   40.8783 a3         1 CLA     -0.180800
     22 CMC        74.9180   60.3239   44.2918 a3         1 CLA     -0.134000
     23 CMD        73.0051   56.0177   37.6556 a3         1 CLA     -0.141100
     24 C1         82.5094   55.0473   34.4090 a2         1 CLA      0.023000
     25 C1A        78.6109   58.4784   36.5919 ac         1 CLA     -0.015100
     26 C1B        79.8102   61.0910   39.9294 cr         1 CLA      0.054700
     27 C1C        76.0059   60.1176   41.9566 cn         1 CLA     -0.005600
     28 C1D        74.6909   57.6868   38.5910 ap         1 CLA     -0.047300
     29 O1A        81.5254   56.4323   32.2561 o2         1 CLA     -0.610800
     30 O1D        78.9940   55.5946   34.1285 o2         1 CLA     -0.558200
     31 C2         83.0500   54.7238   35.7589 c8         1 CLA     -0.325100
     32 C2A        79.9544   58.3459   35.8737 a1         1 CLA      0.098600
     33 C2B        80.5018   61.7688   40.9960 cb         1 CLA      0.088500
     34 C2C        74.9494   59.7943   42.9207 cb         1 CLA      0.053700
     35 C2D        74.2018   56.8843   37.5176 cb         1 CLA      0.058900
     36 O2A        82.2690   56.4689   34.4509 o1         1 CLA     -0.437200
     37 O2D        77.9547   54.7444   36.0156 o1         1 CLA     -0.357600
     38 C3         84.1962   53.9998   36.0035 c5         1 CLA      0.031200
     39 C3A        80.9351   59.1111   36.8371 a1         1 CLA      0.166800
     40 C3B        79.4764   61.9601   41.9372 cb         1 CLA      0.035000
     41 C3C        74.0515   58.9118   42.2671 cb         1 CLA     -0.089900
     42 C3D        75.2410   56.8839   36.5711 cb         1 CLA     -0.035900
     43 C4         84.2399   52.4971   35.9378 a3         1 CLA     -0.053300
     44 C4A        79.9921   59.8027   37.7833 ac         1 CLA      0.001800
     45 C4B        78.3599   61.2479   41.4478 cn         1 CLA     -0.020900
     46 C4C        74.5856   58.8039   40.9080 cr         1 CLA     -0.044400
     47 C4D        76.2948   57.6485   37.1077 c6         1 CLA     -0.046000
     48 C5         85.5575   54.7661   35.9237 a2         1 CLA     -0.070400
     49 C6         85.9205   55.6389   37.1190 a2         1 CLA      0.043900
     50 C7         87.2474   56.5198   36.8203 a2         1 CLA     -0.150000
     51 C8         87.7151   57.4762   37.9314 a1         1 CLA      0.064200
     52 C9         88.8259   58.4148   37.3405 a3         1 CLA     -0.259300
     53 C10        88.1115   56.8192   39.2729 a2         1 CLA     -0.071900
     54 C11        88.4166   57.7683   40.4303 a2         1 CLA      0.014500
     55 C12        88.8108   56.9698   41.6952 a2         1 CLA     -0.112100
     56 C13        88.9262   57.8975   42.9402 a1         1 CLA      0.089200
     57 C14        90.1882   58.7712   42.9380 a3         1 CLA     -0.239100
     58 C15        88.8271   57.0206   44.2111 a2         1 CLA     -0.102200
     59 C16        88.6470   57.6825   45.6159 a2         1 CLA      0.023900
     60 C17        87.4170   58.4856   45.7035 a2         1 CLA     -0.105700
     61 C18        87.1630   58.9440   47.1832 a1         1 CLA      0.206800
     62 C19        86.0808   60.0738   47.2804 a3         1 CLA     -0.280100
     63 C20        86.7000   57.6954   48.0246 a3         1 CLA     -0.280100
     64 NC         75.8080   59.5238   40.7922 nx         1 CLA     -0.309200
     65 MG         77.1793   59.5647   39.1803 mg         1 CLA      0.895000
     66 HMD3       72.9217   55.7132   38.6992 dc         1 CLA      0.064300
     67 HMD2       72.1235   56.4945   37.2501 dc         1 CLA      0.064300
     68 HMD1       73.2729   55.0421   37.0979 dc         1 CLA      0.064300
     69 HMC3       73.8857   60.5462   44.5276 dc         1 CLA      0.052100
     70 HMC2       75.3486   59.6264   45.0166 dc         1 CLA      0.052100
     71 HMC1       75.4180   61.3181   44.5477 dc         1 CLA      0.052100
     72 HMB3       81.9278   63.2796   41.4209 dc         1 CLA      0.063600
     73 HMB2       82.5491   61.6781   41.4321 dc         1 CLA      0.063600
     74 HMB1       82.2157   62.3712   39.8335 dc         1 CLA      0.063600
     75 HMA3       81.3637   57.7189   38.4523 dc         1 CLA      0.058300
     76 HMA2       82.3125   57.4432   37.0094 dc         1 CLA      0.058300
     77 HMA1       82.6601   58.9142   38.0716 dc         1 CLA      0.058300
     78 HED3       78.6419   53.2472   34.6859 dc         1 CLA      0.079300
     79 HED2       79.8144   53.7806   35.9022 dc         1 CLA      0.079300
     80 HED1       78.4728   52.6201   36.3264 dc         1 CLA      0.079300
     81 HBC3       72.8212   56.3509   41.6283 dc         1 CLA      0.016300
     82 HBC2       74.0938   56.1998   42.7174 dc         1 CLA      0.016300
     83 HBC1       72.5597   55.9486   43.3458 dc         1 CLA      0.016300
     84 HBB2       80.7205   63.0807   45.0326 da         1 CLA      0.183000
     85 HBB1       81.5653   61.9829   43.8285 da         1 CLA      0.183000
     86 HBA2       81.2001   58.8576   32.5836 dc         1 CLA      0.029400
     87 HBA1       82.1720   58.9162   34.1659 dc         1 CLA      0.029400
     88 HAC2       73.2079   58.1500   44.0381 dc         1 CLA      0.029300
     89 HAC1       72.0473   58.5531   42.8096 dc         1 CLA      0.029300
     90 HAA2       79.0768   58.2395   33.9296 dc         1 CLA      0.028700
     91 HAA1       79.8325   59.8783   34.3133 dc         1 CLA      0.028700
     92 H203       85.6454   57.4222   47.6893 dc         1 CLA      0.065600
     93 H202       87.4486   56.8871   47.9505 dc         1 CLA      0.065600
     94 H201       86.7273   57.9201   49.0957 dc         1 CLA      0.065600
     95 H193       86.3456   60.9165   46.6205 dc         1 CLA      0.065600
     96 H192       85.2555   59.6735   46.6588 dc         1 CLA      0.065600
     97 H191       85.8624   60.2144   48.3206 dc         1 CLA      0.065600
     98 H172       87.7672   59.2995   45.1010 dc         1 CLA      0.027600
     99 H171       86.4667   58.0769   45.2384 dc         1 CLA      0.027600
    100 H162       88.6361   56.8268   46.2505 dc         1 CLA      0.002900
    101 H161       89.4275   58.3616   45.8586 dc         1 CLA      0.002900
    102 H152       88.1653   56.1948   44.0865 dc         1 CLA      0.029100
    103 H151       89.8031   56.4554   44.4052 dc         1 CLA      0.029100
    104 H143       90.2567   59.3870   42.0150 dc         1 CLA      0.063600
    105 H142       90.0804   59.4742   43.7733 dc         1 CLA      0.063600
    106 H141       91.0366   58.1352   43.0193 dc         1 CLA      0.063600
    107 H122       87.9774   56.3056   41.9638 dc         1 CLA      0.032500
    108 H121       89.6830   56.2830   41.5978 dc         1 CLA      0.032500
    109 H112       89.2083   58.4548   40.1587 dc         1 CLA      0.006600
    110 H111       87.5324   58.3765   40.6262 dc         1 CLA      0.006600
    111 H102       87.2719   56.1608   39.5976 dc         1 CLA      0.024100
    112 H101       88.9436   56.1353   39.2593 dc         1 CLA      0.024100
    113 HHD        73.0753   57.6369   39.9247 da         1 CLA      0.174300
    114 HHC        77.1439   61.6145   43.1884 da         1 CLA      0.136800
    115 HHB        81.5067   60.8923   38.6303 da         1 CLA      0.138300
    116 HBD        77.1127   57.2607   34.0903 dc         1 CLA      0.107700
    117 HAB        78.6931   63.2313   43.5856 da         1 CLA      0.155200
    118 H93        89.0864   59.2358   38.0561 dc         1 CLA      0.069500
    119 H92        89.7395   57.9131   37.2700 dc         1 CLA      0.069500
    120 H91        88.5100   58.7609   36.3476 dc         1 CLA      0.069500
    121 H8         86.8606   57.9997   38.1431 dc         1 CLA      0.029300
    122 H72        88.1496   55.8784   36.6719 dc         1 CLA      0.044400
    123 H71        87.0386   57.1283   35.9706 dc         1 CLA      0.044400
    124 H62        85.1023   56.3667   37.1605 dc         1 CLA      0.015600
    125 H61        86.0379   55.1331   38.0688 dc         1 CLA      0.015600
    126 H52        86.3759   54.0446   35.7522 dc         1 CLA      0.033200
    127 H51        85.3334   55.3805   34.9637 dc         1 CLA      0.033200
    128 H43        84.9053   52.1725   35.1417 dc         1 CLA      0.037000
    129 H42        84.7002   52.1144   36.8364 dc         1 CLA      0.037000
    130 H41        83.3207   52.0997   35.8638 dc         1 CLA      0.037000
    131 H3A        81.5208   59.8860   36.4212 dc         1 CLA      0.041100
    132 H2A        80.2169   57.2787   35.8883 dc         1 CLA      0.083100
    133 H2         82.4595   55.0102   36.6085 da         1 CLA      0.180900
    134 H18        88.0852   59.2924   47.6050 dc         1 CLA     -0.003900
    135 H13        88.1643   58.6948   43.0055 dc         1 CLA      0.019700
    136 H12        81.5317   54.5130   34.2924 dc         1 CLA      0.120400
    137 H11        83.1626   54.8888   33.6248 dc         1 CLA      0.120400
    138 C1         69.8194   61.0061   49.8700 Z1         2 LUT      0.509236
    139 C2         69.6479   61.8523   51.0988 Z2         2 LUT     -0.434695
    140 C3         68.2030   62.3303   51.2931 Z3         2 LUT      0.437453
    141 O3         68.1270   63.0835   52.4947 S1         2 LUT     -0.547129
    142 C4         67.7714   63.1725   50.2017 Z4         2 LUT     -0.468603
    143 C5         68.3472   62.8662   48.8804 Z5         2 LUT      0.279246
    144 C6         69.2136   61.8236   48.6663 Z6         2 LUT     -0.305473
    145 C7         69.9837   61.6155   47.4207 Z7         2 LUT      0.069402
    146 C8         70.6753   62.5056   46.6574 Z8         2 LUT     -0.191631
    147 C9         71.2403   62.3282   45.3217 Z9         2 LUT      0.196698
    148 C10        72.1628   63.2822   44.8026 Y1         2 LUT     -0.208611
    149 C11        72.9224   63.2624   43.5474 Y2         2 LUT      0.030784
    150 C12        73.9220   64.0715   43.2017 Y3         2 LUT     -0.220316
    151 C13        74.8153   63.8305   42.0021 Y4         2 LUT      0.215937
    152 C14        75.9958   64.4895   41.9659 Y5         2 LUT     -0.185793
    153 C15        77.0401   64.4007   40.9528 Y6         2 LUT     -0.057835
    154 C16        69.2305   59.5581   50.0326 Y7         2 LUT     -0.405615
    155 C17        71.3490   60.6941   49.7173 Y7         2 LUT     -0.405615
    156 C18        67.9564   63.9988   47.8813 Y9         2 LUT     -0.369639
    157 C19        70.9283   61.0400   44.5587 W1         2 LUT     -0.333362
    158 C20        74.2890   63.0650   40.7989 W2         2 LUT     -0.323439
    159 C21        88.6134   66.1879   34.7805 Z1         2 LUT      0.406104
    160 C22        89.2479   65.6268   33.4407 Z2         2 LUT     -0.404965
    161 C23        89.3581   66.6074   32.3070 Z3         2 LUT      0.391255
    162 O23        89.3638   65.8240   31.0897 S1         2 LUT     -0.528210
    163 C24        88.0334   67.3902   32.2707 W6         2 LUT     -0.258361
    164 C25        87.0753   67.4242   33.2120 Z5         2 LUT      0.133546
    165 C26        87.0672   66.6699   34.5262 W8         2 LUT     -0.147008
    166 C27        86.3924   67.2368   35.7227 Z7         2 LUT      0.023843
    167 C28        85.3243   66.6798   36.2941 Z8         2 LUT     -0.216987
    168 C29        84.5176   67.1534   37.4299 Z9         2 LUT      0.206524
    169 C30        83.3960   66.3573   37.6402 Y1         2 LUT     -0.215556
    170 C31        82.3885   66.4505   38.7714 Y2         2 LUT      0.025142
    171 C32        81.3780   65.6336   39.0733 Y3         2 LUT     -0.212209
    172 C33        80.4531   65.9176   40.1759 Y4         2 LUT      0.240937
    173 C34        79.3043   65.1457   40.1410 Y5         2 LUT     -0.218862
    174 C35        78.2282   65.2169   41.0303 Y6         2 LUT     -0.023547
    175 C36        89.5195   67.2615   35.5005 Y7         2 LUT     -0.393485
    176 C37        88.6654   64.9507   35.7640 Y7         2 LUT     -0.393485
    177 C38        85.8121   68.2840   33.0128 Y9         2 LUT     -0.387526
    178 C39        84.8125   68.4050   38.1961 W1         2 LUT     -0.322618
    179 C40        80.7436   67.0109   41.1876 W2         2 LUT     -0.358472
    180 H403       80.8069   67.9948   40.7827 R7         2 LUT      0.097720
    181 H402       79.9369   66.9912   41.9894 R7         2 LUT      0.097720
    182 H401       81.7017   66.8644   41.6735 R7         2 LUT      0.097720
    183 H393       84.8709   68.2917   39.3072 R4         2 LUT      0.082505
    184 H392       85.7300   68.9930   37.9320 R4         2 LUT      0.082505
    185 H391       83.9575   69.0812   38.0114 R4         2 LUT      0.082505
    186 H383       85.9105   68.7917   32.0822 R1         2 LUT      0.104030
    187 H382       84.9092   67.7284   33.0294 R1         2 LUT      0.104030
    188 H381       85.7005   69.0017   33.8023 R1         2 LUT      0.104030
    189 H373       89.6811   64.5984   35.9030 T4         2 LUT      0.089537
    190 H372       88.2582   65.1001   36.7007 T4         2 LUT      0.089537
    191 H371       88.1755   64.1066   35.3089 T4         2 LUT      0.089537
    192 H363       89.0847   67.6158   36.4396 T4         2 LUT      0.089537
    193 H362       90.5027   66.8205   35.7168 T4         2 LUT      0.089537
    194 H361       89.6567   68.0484   34.7829 T4         2 LUT      0.089537
    195 H222       90.2522   65.3302   33.6838 U2         2 LUT      0.127376
    196 H221       88.6982   64.6904   33.1752 U2         2 LUT      0.127376
    197 H203       74.9132   63.2497   39.8872 R7         2 LUT      0.087068
    198 H202       74.4520   62.0039   41.0078 R7         2 LUT      0.087068
    199 H201       73.2329   63.1904   40.5634 R7         2 LUT      0.087068
    200 H193       71.4654   60.1754   44.9930 R4         2 LUT      0.089716
    201 H192       69.9218   60.7467   44.5541 R4         2 LUT      0.089716
    202 H191       71.2581   61.0775   43.5502 R4         2 LUT      0.089716
    203 H183       67.2420   64.7693   48.3881 R1         2 LUT      0.094572
    204 H182       68.8413   64.4672   47.5774 R1         2 LUT      0.094572
    205 H181       67.5853   63.6506   46.8226 R1         2 LUT      0.094572
    206 H173       71.8132   61.5278   49.5090 T4         2 LUT      0.093752
    207 H172       71.5982   60.2172   50.6301 T4         2 LUT      0.093752
    208 H171       71.5139   59.9964   48.8581 T4         2 LUT      0.093752
    209 H163       69.7087   58.8980   50.7257 T4         2 LUT      0.093752
    210 H162       68.1039   59.6724   50.2121 T4         2 LUT      0.093752
    211 H161       69.2434   59.1151   48.9822 T4         2 LUT      0.093752
    212 HO3        67.4553   62.6358   53.1121 Q1         2 LUT      0.300121
    213 H8         70.7924   63.5206   47.0946 U7         2 LUT      0.080784
    214 H7         69.9327   60.5982   47.0892 U6         2 LUT      0.042190
    215 H42        66.6596   63.2118   50.2300 U5         2 LUT      0.145166
    216 H41        68.2158   64.1364   50.5029 U5         2 LUT      0.145166
    217 H35        78.2561   65.9123   41.9519 T3         2 LUT      0.077919
    218 H34        79.1480   64.4010   39.3960 T2         2 LUT      0.073626
    219 H32        81.1188   64.8827   38.2806 T1         2 LUT      0.092510
    220 H31        82.5718   67.2106   39.5481 U9         2 LUT      0.070048
    221 H30        83.1174   65.5559   37.0324 U8         2 LUT      0.085442
    222 H3         67.5348   61.4243   51.1139 U3         2 LUT     -0.031596
    223 H28        85.1427   65.6698   35.8804 U7         2 LUT      0.084728
    224 H27        86.8033   68.1904   36.1099 U6         2 LUT      0.087291
    225 H26        86.5157   65.7527   34.2298 Q6         2 LUT      0.075325
    226 H24        87.7818   67.9372   31.3581 Q5         2 LUT      0.094482
    227 H23        90.1066   67.2770   32.6745 U3         2 LUT     -0.024869
    228 H22        69.8099   61.2700   52.0438 U2         2 LUT      0.127376
    229 H21        70.3195   62.6885   51.1167 U2         2 LUT      0.127376
    230 H15        77.0156   63.7875   40.0370 T3         2 LUT      0.093200
    231 H14        76.1301   65.2676   42.7568 T2         2 LUT      0.068865
    232 H12        74.2609   64.8818   43.8632 T1         2 LUT      0.095507
    233 H11        72.7479   62.4449   42.8737 U9         2 LUT      0.068930
    234 H10        72.3604   64.1555   45.3781 U8         2 LUT      0.083911
    235 H1         90.2702   65.5811   30.8465 Q1         2 LUT      0.297311
@<TRIPOS>BOND
    1     6     1 1
    2     7     2 1
    3     8     3 1
    4     9     4 1
    5    11     4 1
    6    12     6 1
    7    13     9 1
    8    16     9 1
    9    25     5 1
   10    25    16 1
   11    26    10 1
   12    26    17 1
   13    27    18 1
   14    28    14 1
   15    28    19 1
   16    29    12 1
   17    30    13 1
   18    31    24 1
   19    32     1 1
   20    32    25 1
   21    33    21 1
   22    33    26 1
   23    34    22 1
   24    34    27 1
   25    35    23 1
   26    35    28 1
   27    36    12 1
   28    36    24 1
   29    37    13 1
   30    37    15 1
   31    38    31 1
   32    39    20 1
   33    39    32 1
   34    40     2 1
   35    40    33 1
   36    41     3 1
   37    41    34 1
   38    42     4 1
   39    42    35 1
   40    43    38 1
   41    44     5 1
   42    44    17 1
   43    44    39 1
   44    45    10 1
   45    45    18 1
   46    45    40 1
   47    46    19 1
   48    46    41 1
   49    47    14 1
   50    47    16 1
   51    47    42 1
   52    48    38 1
   53    49    48 1
   54    50    49 1
   55    51    50 1
   56    52    51 1
   57    53    51 1
   58    54    53 1
   59    55    54 1
   60    56    55 1
   61    57    56 1
   62    58    56 1
   63    59    58 1
   64    60    59 1
   65    61    60 1
   66    62    61 1
   67    63    61 1
   68    64    27 1
   69    64    46 1
   70    65     5 1
   71    65    10 1
   72    65    64 1
   73    65    14 1
   74    66    23 1
   75    67    23 1
   76    68    23 1
   77    69    22 1
   78    70    22 1
   79    71    22 1
   80    72    21 1
   81    73    21 1
   82    74    21 1
   83    75    20 1
   84    76    20 1
   85    77    20 1
   86    78    15 1
   87    79    15 1
   88    80    15 1
   89    81     8 1
   90    82     8 1
   91    83     8 1
   92    84     7 1
   93    85     7 1
   94    86     6 1
   95    87     6 1
   96    88     3 1
   97    89     3 1
   98    90     1 1
   99    91     1 1
  100    92    63 1
  101    93    63 1
  102    94    63 1
  103    95    62 1
  104    96    62 1
  105    97    62 1
  106    98    60 1
  107    99    60 1
  108   100    59 1
  109   101    59 1
  110   102    58 1
  111   103    58 1
  112   104    57 1
  113   105    57 1
  114   106    57 1
  115   107    55 1
  116   108    55 1
  117   109    54 1
  118   110    54 1
  119   111    53 1
  120   112    53 1
  121   113    19 1
  122   114    18 1
  123   115    17 1
  124   116     9 1
  125   117     2 1
  126   118    52 1
  127   119    52 1
  128   120    52 1
  129   121    51 1
  130   122    50 1
  131   123    50 1
  132   124    49 1
  133   125    49 1
  134   126    48 1
  135   127    48 1
  136   128    43 1
  137   129    43 1
  138   130    43 1
  139   131    39 1
  140   132    32 1
  141   133    31 1
  142   134    61 1
  143   135    56 1
  144   136    24 1
  145   137    24 1
  146   139   138 1
  147   140   139 1
  148   141   140 1
  149   142   140 1
  150   143   142 1
  151   144   138 1
  152   144   143 1
  153   145   144 1
  154   146   145 1
  155   147   146 1
  156   148   147 1
  157   149   148 1
  158   150   149 1
  159   151   150 1
  160   152   151 1
  161   153   152 1
  162   154   138 1
  163   155   138 1
  164   156   143 1
  165   157   147 1
  166   158   151 1
  167   160   159 1
  168   161   160 1
  169   162   161 1
  170   163   161 1
  171   164   163 1
  172   165   159 1
  173   165   164 1
  174   166   165 1
  175   167   166 1
  176   168   167 1
  177   169   168 1
  178   170   169 1
  179   171   170 1
  180   172   171 1
  181   173   172 1
  182   174   153 1
  183   174   173 1
  184   175   159 1
  185   176   159 1
  186   177   164 1
  187   178   168 1
  188   179   172 1
  189   180   179 1
  190   181   179 1
  191   182   179 1
  192   183   178 1
  193   184   178 1
  194   185   178 1
  195   186   177 1
  196   187   177 1
  197   188   177 1
  198   189   176 1
  199   190   176 1
  200   191   176 1
  201   192   175 1
  202   193   175 1
  203   194   175 1
  204   195   160 1
  205   196   160 1
  206   197   158 1
  207   198   158 1
  208   199   158 1
  209   200   157 1
  210   201   157 1
  211   202   157 1
  212   203   156 1
  213   204   156 1
  214   205   156 1
  215   206   155 1
  216   207   155 1
  217   208   155 1
  218   209   154 1
  219   210   154 1
  220   211   154 1
  221   212   141 1
  222   213   146 1
  223   214   145 1
  224   215   142 1
  225   216   142 1
  226   217   174 1
  227   218   173 1
  228   219   171 1
  229   220   170 1
  230   221   169 1
  231   222   140 1
  232   223   167 1
  233   224   166 1
  234   225   165 1
  235   226   163 1
  236   227   161 1
  237   228   139 1
  238   229   139 1
  239   230   153 1
  240   231   152 1
  241   232   150 1
  242   233   149 1
  243   234   148 1
  244   235   162 1
  245   65    153 1
  246   65    174 1
@<TRIPOS>SUBSTRUCTURE
      1 CLA               1 ****               0 ****  **** 
      2 LUT             138 ****               0 ****  **** 
