@<TRIPOS>MOLECULE
Cpptraj generated mol2 file.
  235   246     2     0     0
SMALL
USER_CHARGES


@<TRIPOS>ATOM
      1 CAA        80.3695   57.9988   34.2803 a2         1 CLA     -0.055900
      2 CAB        79.5482   62.2197   43.2031 c8         1 CLA     -0.148500
      3 CAC        72.8736   57.9944   42.4210 a2         1 CLA     -0.012600
      4 CAD        75.9879   55.6795   35.3930 ck         1 CLA      0.398800
      5 NA         78.9876   58.7762   37.6584 ns         1 CLA     -0.225500
      6 CBA        81.7531   57.7035   33.6701 a2         1 CLA     -0.135000
      7 CBB        80.6300   62.2314   44.0655 c0         1 CLA     -0.395200
      8 CBC        73.2447   56.4799   42.5709 a3         1 CLA     -0.037700
      9 CBD        77.4457   56.1070   35.2424 a1         1 CLA     -0.053900
     10 NB         78.6118   60.3435   40.1626 nm         1 CLA     -0.295700
     11 OBD        75.3835   55.0319   34.4900 o2         1 CLA     -0.494600
     12 CGA        82.0243   56.1950   33.6084 c4         1 CLA      0.827000
     13 CGD        78.3100   54.8826   35.0625 c4         1 CLA      0.655300
     14 ND         76.1849   57.7580   38.1554 nm         1 CLA     -0.291600
     15 CED        78.9876   52.7974   36.1148 a3         1 CLA      0.005400
     16 CHA        77.8002   57.0896   36.3187 cs         1 CLA     -0.123800
     17 CHB        80.5600   60.2878   38.6005 aa         1 CLA     -0.291900
     18 CHC        77.2066   60.5931   42.1995 aa         1 CLA     -0.090400
     19 CHD        74.2290   57.8147   39.5342 aa         1 CLA     -0.052000
     20 CMA        82.5031   58.2980   37.3844 a3         1 CLA     -0.230700
     21 CMB        81.9082   62.0843   40.8821 a3         1 CLA     -0.180800
     22 CMC        74.9187   59.8674   44.0390 a3         1 CLA     -0.134000
     23 CMD        73.1024   55.9114   37.2331 a3         1 CLA     -0.141100
     24 C1         82.7832   54.2156   34.8297 a2         1 CLA      0.023000
     25 C1A        78.9437   57.8509   36.5857 ac         1 CLA     -0.015100
     26 C1B        79.9252   60.7051   39.8185 cr         1 CLA      0.054700
     27 C1C        76.0634   59.9160   41.7519 cn         1 CLA     -0.005600
     28 C1D        74.8839   57.3766   38.3897 ap         1 CLA     -0.047300
     29 O1A        82.0872   55.5454   32.5968 o2         1 CLA     -0.610800
     30 O1D        79.1517   54.7261   34.1379 o2         1 CLA     -0.558200
     31 C2         83.4501   53.9520   36.1924 c8         1 CLA     -0.325100
     32 C2A        80.3118   57.7285   35.8596 a1         1 CLA      0.098600
     33 C2B        80.5242   61.4548   40.9141 cb         1 CLA      0.088500
     34 C2C        74.9513   59.5581   42.6187 cb         1 CLA      0.053700
     35 C2D        74.3963   56.5057   37.4143 cb         1 CLA      0.058900
     36 O2A        82.4023   55.6665   34.8531 o1         1 CLA     -0.437200
     37 O2D        78.2693   54.1335   36.1862 o1         1 CLA     -0.357600
     38 C3         84.7961   54.0201   36.4096 c5         1 CLA      0.031200
     39 C3A        81.1818   58.7702   36.6607 a1         1 CLA      0.166800
     40 C3B        79.5709   61.5349   41.8917 cb         1 CLA      0.035000
     41 C3C        74.0301   58.7903   41.8658 cb         1 CLA     -0.089900
     42 C3D        75.5312   56.3453   36.5643 cb         1 CLA     -0.035900
     43 C4         85.8398   52.9166   36.1800 a3         1 CLA     -0.053300
     44 C4A        80.1931   59.3740   37.6872 ac         1 CLA      0.001800
     45 C4B        78.3566   60.8205   41.4260 cn         1 CLA     -0.020900
     46 C4C        74.6326   58.6988   40.5343 cr         1 CLA     -0.044400
     47 C4D        76.5787   57.1877   37.0238 c6         1 CLA     -0.046000
     48 C5         85.3835   55.3451   36.7585 a2         1 CLA     -0.070400
     49 C6         86.4343   55.3951   37.8761 a2         1 CLA      0.043900
     50 C7         86.6239   57.0134   37.9269 a2         1 CLA     -0.150000
     51 C8         87.7426   57.4559   38.8719 a1         1 CLA      0.064200
     52 C9         89.1372   56.7284   38.6321 a3         1 CLA     -0.259300
     53 C10        87.2962   57.5798   40.2956 a2         1 CLA     -0.071900
     54 C11        88.3510   58.1382   41.1002 a2         1 CLA      0.014500
     55 C12        87.7952   58.5679   42.4457 a2         1 CLA     -0.112100
     56 C13        88.6513   59.4363   43.3913 a1         1 CLA      0.089200
     57 C14        89.7257   58.6621   44.0613 a3         1 CLA     -0.239100
     58 C15        87.6698   59.9324   44.5531 a2         1 CLA     -0.102200
     59 C16        88.3209   60.4962   45.8457 a2         1 CLA      0.023900
     60 C17        87.2847   61.0448   46.9168 a2         1 CLA     -0.105700
     61 C18        86.1847   60.0664   47.3838 a1         1 CLA      0.206800
     62 C19        86.8837   58.7334   47.9738 a3         1 CLA     -0.280100
     63 C20        85.1516   60.7251   48.3733 a3         1 CLA     -0.280100
     64 NC         75.8390   59.3689   40.5322 nx         1 CLA     -0.309200
     65 MG         77.3431   59.1843   39.1560 mg         1 CLA      0.895000
     66 HMD3       72.3735   56.6522   36.8463 dc         1 CLA      0.064300
     67 HMD2       72.9726   55.0423   36.5704 dc         1 CLA      0.064300
     68 HMD1       72.7411   55.4993   38.1939 dc         1 CLA      0.064300
     69 HMC3       74.9441   60.9398   44.0972 dc         1 CLA      0.052100
     70 HMC2       74.0216   59.5694   44.5193 dc         1 CLA      0.052100
     71 HMC1       75.8709   59.5383   44.4943 dc         1 CLA      0.052100
     72 HMB3       82.6099   61.2116   40.9478 dc         1 CLA      0.063600
     73 HMB2       82.0714   62.6738   40.0048 dc         1 CLA      0.063600
     74 HMB1       82.0874   62.6070   41.7847 dc         1 CLA      0.063600
     75 HMA3       82.1833   57.5348   38.0707 dc         1 CLA      0.058300
     76 HMA2       83.1237   57.8211   36.5773 dc         1 CLA      0.058300
     77 HMA1       82.9667   59.0053   38.0292 dc         1 CLA      0.058300
     78 HED3       80.0686   53.0492   36.2047 dc         1 CLA      0.079300
     79 HED2       78.6987   52.2173   37.0210 dc         1 CLA      0.079300
     80 HED1       78.7137   52.2125   35.2501 dc         1 CLA      0.079300
     81 HBC3       74.1300   56.2070   43.1212 dc         1 CLA      0.016300
     82 HBC2       72.3714   56.0283   43.0510 dc         1 CLA      0.016300
     83 HBC1       73.2441   56.0140   41.5712 dc         1 CLA      0.016300
     84 HBB2       80.5085   62.7029   45.0652 da         1 CLA      0.183000
     85 HBB1       81.5760   61.6751   43.9087 da         1 CLA      0.183000
     86 HBA2       81.8029   58.0190   32.6972 dc         1 CLA      0.029400
     87 HBA1       82.5282   58.1892   34.3252 dc         1 CLA      0.029400
     88 HAC2       72.5047   58.4688   43.3298 dc         1 CLA      0.029300
     89 HAC1       72.0122   58.0081   41.7252 dc         1 CLA      0.029300
     90 HAA2       79.6039   57.3555   33.7625 dc         1 CLA      0.028700
     91 HAA1       80.1015   59.0796   34.2339 dc         1 CLA      0.028700
     92 H203       85.6289   61.1553   49.2292 dc         1 CLA      0.065600
     93 H202       84.7597   61.4914   47.7575 dc         1 CLA      0.065600
     94 H201       84.3651   60.0747   48.6353 dc         1 CLA      0.065600
     95 H193       87.5554   59.1547   48.6852 dc         1 CLA      0.065600
     96 H192       86.2105   58.1570   48.6342 dc         1 CLA      0.065600
     97 H191       87.4813   58.1139   47.2881 dc         1 CLA      0.065600
     98 H172       87.8553   61.3100   47.7366 dc         1 CLA      0.027600
     99 H171       86.7147   61.9243   46.5714 dc         1 CLA      0.027600
    100 H162       88.9875   59.8535   46.4220 dc         1 CLA      0.002900
    101 H161       88.9466   61.3316   45.6194 dc         1 CLA      0.002900
    102 H152       86.9365   60.5923   44.0624 dc         1 CLA      0.029100
    103 H151       87.1212   59.1003   44.7798 dc         1 CLA      0.029100
    104 H143       90.2684   58.0386   43.3638 dc         1 CLA      0.063600
    105 H142       90.3814   59.3286   44.5883 dc         1 CLA      0.063600
    106 H141       89.4419   57.9726   44.8393 dc         1 CLA      0.063600
    107 H122       86.9130   59.1455   42.2634 dc         1 CLA      0.032500
    108 H121       87.3425   57.6692   42.9383 dc         1 CLA      0.032500
    109 H112       89.1835   57.4269   41.3062 dc         1 CLA      0.006600
    110 H111       88.8847   58.9839   40.5972 dc         1 CLA      0.006600
    111 H102       86.3520   58.1189   40.3542 dc         1 CLA      0.024100
    112 H101       87.0606   56.5186   40.6378 dc         1 CLA      0.024100
    113 HHD        73.3133   57.2739   39.6794 da         1 CLA      0.174300
    114 HHC        77.1576   60.8733   43.2683 da         1 CLA      0.136800
    115 HHB        81.5842   60.6214   38.6402 da         1 CLA      0.138300
    116 HBD        77.4613   56.5492   34.2575 dc         1 CLA      0.107700
    117 HAB        78.5669   62.6471   43.5007 da         1 CLA      0.155200
    118 H93        89.8818   56.9209   39.3917 dc         1 CLA      0.069500
    119 H92        89.1721   55.6307   38.6397 dc         1 CLA      0.069500
    120 H91        89.4197   57.0739   37.6724 dc         1 CLA      0.069500
    121 H8         87.9770   58.5339   38.6337 dc         1 CLA      0.029300
    122 H72        86.8900   57.3461   36.9456 dc         1 CLA      0.044400
    123 H71        85.7161   57.5027   38.1725 dc         1 CLA      0.044400
    124 H62        86.0116   55.1075   38.8241 dc         1 CLA      0.015600
    125 H61        87.3881   54.9237   37.6736 dc         1 CLA      0.015600
    126 H52        85.6563   55.8078   35.8171 dc         1 CLA      0.033200
    127 H51        84.5842   56.0118   37.0490 dc         1 CLA      0.033200
    128 H43        85.5194   52.2088   35.4518 dc         1 CLA      0.037000
    129 H42        86.8258   53.2204   35.8621 dc         1 CLA      0.037000
    130 H41        86.0802   52.4146   37.0600 dc         1 CLA      0.037000
    131 H3A        81.5241   59.5386   35.9725 dc         1 CLA      0.041100
    132 H2A        80.5314   56.6959   36.1289 dc         1 CLA      0.083100
    133 H2         82.7087   53.5862   36.9542 da         1 CLA      0.180900
    134 H18        85.7150   59.7357   46.5222 dc         1 CLA     -0.003900
    135 H13        89.1065   60.2649   42.8166 dc         1 CLA      0.019700
    136 H12        81.9779   53.4900   34.9237 dc         1 CLA      0.120400
    137 H11        83.4211   53.8410   34.0109 dc         1 CLA      0.120400
    138 C1         69.7616   61.8817   49.7420 Z1         2 LUT      0.509236
    139 C2         68.4694   61.6128   50.4826 Z2         2 LUT     -0.434695
    140 C3         67.5106   62.8207   50.7002 Z3         2 LUT      0.437453
    141 O3         67.1213   62.9665   52.0844 S1         2 LUT     -0.547129
    142 C4         67.7675   64.0328   49.8351 Z4         2 LUT     -0.468603
    143 C5         68.5136   63.7667   48.5636 Z5         2 LUT      0.279246
    144 C6         69.5056   62.8436   48.5304 Z6         2 LUT     -0.305473
    145 C7         69.9763   62.4073   47.1738 Z7         2 LUT      0.069402
    146 C8         70.9374   62.9625   46.3435 Z8         2 LUT     -0.191631
    147 C9         71.5494   62.4297   45.1218 Z9         2 LUT      0.196698
    148 C10        72.4927   63.1405   44.4467 Y1         2 LUT     -0.208611
    149 C11        73.2721   62.9523   43.2699 Y2         2 LUT      0.030784
    150 C12        74.3746   63.8162   43.0154 Y3         2 LUT     -0.220316
    151 C13        75.3769   63.7139   42.0069 Y4         2 LUT      0.215937
    152 C14        76.5465   64.3856   42.1882 Y5         2 LUT     -0.185793
    153 C15        77.7021   64.4602   41.3854 Y6         2 LUT     -0.057835
    154 C16        70.2925   60.5170   49.3564 Y7         2 LUT     -0.405615
    155 C17        70.7768   62.4867   50.7318 Y7         2 LUT     -0.405615
    156 C18        67.7071   64.3203   47.3810 Y9         2 LUT     -0.369639
    157 C19        71.0462   61.1569   44.6780 W1         2 LUT     -0.333362
    158 C20        75.0272   62.8858   40.7876 W2         2 LUT     -0.323439
    159 C21        88.9895   65.1982   35.3432 Z1         2 LUT      0.406104
    160 C22        89.3995   64.4757   34.0328 Z2         2 LUT     -0.404965
    161 C23        89.2982   65.2766   32.7940 Z3         2 LUT      0.391255
    162 O23        89.4255   64.2832   31.7605 S1         2 LUT     -0.528210
    163 C24        87.9482   65.9720   32.7115 W6         2 LUT     -0.258361
    164 C25        87.1301   66.0829   33.7597 Z5         2 LUT      0.133546
    165 C26        87.4968   65.5982   35.1550 W8         2 LUT     -0.147008
    166 C27        86.8632   66.4603   36.2901 Z7         2 LUT      0.023843
    167 C28        85.6080   66.2135   36.6873 Z8         2 LUT     -0.216987
    168 C29        85.0229   66.7032   37.8802 Z9         2 LUT      0.206524
    169 C30        83.9198   66.0148   38.2716 Y1         2 LUT     -0.215556
    170 C31        83.2428   66.1794   39.6021 Y2         2 LUT      0.025142
    171 C32        82.0560   65.5551   39.8113 Y3         2 LUT     -0.212209
    172 C33        81.2497   65.7856   40.9899 Y4         2 LUT      0.240937
    173 C34        80.0371   65.0579   41.0244 Y5         2 LUT     -0.218862
    174 C35        78.8738   65.0647   41.8799 Y6         2 LUT     -0.023547
    175 C36        89.9869   66.3856   35.3859 Y7         2 LUT     -0.393485
    176 C37        89.0851   64.3470   36.6306 Y7         2 LUT     -0.393485
    177 C38        85.8183   66.6325   33.5266 Y9         2 LUT     -0.387526
    178 C39        85.6302   67.8611   38.6629 W1         2 LUT     -0.322618
    179 C40        81.6409   66.9148   41.8688 W2         2 LUT     -0.358472
    180 H403       80.9003   67.0770   42.6544 R7         2 LUT      0.097720
    181 H402       82.6045   66.6762   42.2944 R7         2 LUT      0.097720
    182 H401       81.7904   67.8118   41.2812 R7         2 LUT      0.097720
    183 H393       86.2605   68.5903   38.0694 R4         2 LUT      0.082505
    184 H392       84.8211   68.4358   39.0680 R4         2 LUT      0.082505
    185 H391       86.2253   67.4534   39.4677 R4         2 LUT      0.082505
    186 H383       85.4918   67.3714   34.3488 R1         2 LUT      0.104030
    187 H382       85.8068   67.0978   32.5506 R1         2 LUT      0.104030
    188 H381       85.1320   65.8805   33.4904 R1         2 LUT      0.104030
    189 H373       88.9641   64.8871   37.5382 T4         2 LUT      0.089537
    190 H372       88.5276   63.3588   36.5419 T4         2 LUT      0.089537
    191 H371       90.1712   64.0652   36.7789 T4         2 LUT      0.089537
    192 H363       89.7152   66.9910   36.3139 T4         2 LUT      0.089537
    193 H362       90.9580   66.0170   35.5212 T4         2 LUT      0.089537
    194 H361       89.8952   67.1298   34.5620 T4         2 LUT      0.089537
    195 H222       90.3605   64.1009   34.1660 U2         2 LUT      0.127376
    196 H221       88.6455   63.7047   33.8961 U2         2 LUT      0.127376
    197 H203       74.4513   61.9940   41.0126 R7         2 LUT      0.087068
    198 H202       74.4757   63.4366   39.9575 R7         2 LUT      0.087068
    199 H201       75.8818   62.4420   40.2766 R7         2 LUT      0.087068
    200 H193       71.7650   60.8034   43.9148 R4         2 LUT      0.089716
    201 H192       70.9191   60.4314   45.4696 R4         2 LUT      0.089716
    202 H191       70.1265   61.2279   44.1771 R4         2 LUT      0.089716
    203 H183       66.6919   64.7938   47.5256 R1         2 LUT      0.094572
    204 H182       68.2715   65.1232   46.9793 R1         2 LUT      0.094572
    205 H181       67.6617   63.6774   46.4964 R1         2 LUT      0.094572
    206 H173       71.7608   62.4166   50.3596 T4         2 LUT      0.093752
    207 H172       70.5167   63.5461   50.8998 T4         2 LUT      0.093752
    208 H171       70.8523   61.9456   51.6227 T4         2 LUT      0.093752
    209 H163       71.1030   60.5170   48.5770 T4         2 LUT      0.093752
    210 H162       70.7428   59.9979   50.2360 T4         2 LUT      0.093752
    211 H161       69.4872   59.9391   48.9882 T4         2 LUT      0.093752
    212 HO3        67.8693   63.4146   52.5308 Q1         2 LUT      0.300121
    213 H8         71.3853   63.9724   46.7411 U7         2 LUT      0.080784
    214 H7         69.5539   61.4466   46.8283 U6         2 LUT      0.042190
    215 H42        66.7700   64.4746   49.6415 U5         2 LUT      0.145166
    216 H41        68.3594   64.8949   50.3383 U5         2 LUT      0.145166
    217 H35        78.8702   65.5780   42.8506 T3         2 LUT      0.077919
    218 H34        79.8088   64.6164   40.0335 T2         2 LUT      0.073626
    219 H32        81.5288   64.8733   39.1007 T1         2 LUT      0.092510
    220 H31        83.5613   66.9346   40.4019 U9         2 LUT      0.070048
    221 H30        83.5092   65.1404   37.7262 U8         2 LUT      0.085442
    222 H3         66.5361   62.4953   50.5042 U3         2 LUT     -0.031596
    223 H28        85.0888   65.4094   36.1841 U7         2 LUT      0.084728
    224 H27        87.4614   67.2339   36.8513 U6         2 LUT      0.087291
    225 H26        86.9201   64.6976   35.0970 Q6         2 LUT      0.075325
    226 H24        87.5050   66.2186   31.7018 Q5         2 LUT      0.094482
    227 H23        90.0983   66.1220   32.8287 U3         2 LUT     -0.024869
    228 H22        67.8388   61.0282   49.8360 U2         2 LUT      0.127376
    229 H21        68.5451   61.0000   51.4092 U2         2 LUT      0.127376
    230 H15        77.7106   63.9233   40.4499 T3         2 LUT      0.093200
    231 H14        76.7057   64.9865   43.1179 T2         2 LUT      0.068865
    232 H12        74.5524   64.5514   43.7871 T1         2 LUT      0.095507
    233 H11        73.0694   62.0980   42.5542 U9         2 LUT      0.068930
    234 H10        72.8126   64.0056   44.9324 U8         2 LUT      0.083911
    235 H1         89.9027   64.6213   30.9430 Q1         2 LUT      0.297311
@<TRIPOS>BOND
    1     6     1 1
    2     7     2 1
    3     8     3 1
    4     9     4 1
    5    11     4 1
    6    12     6 1
    7    13     9 1
    8    16     9 1
    9    25     5 1
   10    25    16 1
   11    26    10 1
   12    26    17 1
   13    27    18 1
   14    28    14 1
   15    28    19 1
   16    29    12 1
   17    30    13 1
   18    31    24 1
   19    32     1 1
   20    32    25 1
   21    33    21 1
   22    33    26 1
   23    34    22 1
   24    34    27 1
   25    35    23 1
   26    35    28 1
   27    36    12 1
   28    36    24 1
   29    37    13 1
   30    37    15 1
   31    38    31 1
   32    39    20 1
   33    39    32 1
   34    40     2 1
   35    40    33 1
   36    41     3 1
   37    41    34 1
   38    42     4 1
   39    42    35 1
   40    43    38 1
   41    44     5 1
   42    44    17 1
   43    44    39 1
   44    45    10 1
   45    45    18 1
   46    45    40 1
   47    46    19 1
   48    46    41 1
   49    47    14 1
   50    47    16 1
   51    47    42 1
   52    48    38 1
   53    49    48 1
   54    50    49 1
   55    51    50 1
   56    52    51 1
   57    53    51 1
   58    54    53 1
   59    55    54 1
   60    56    55 1
   61    57    56 1
   62    58    56 1
   63    59    58 1
   64    60    59 1
   65    61    60 1
   66    62    61 1
   67    63    61 1
   68    64    27 1
   69    64    46 1
   70    65     5 1
   71    65    10 1
   72    65    64 1
   73    65    14 1
   74    66    23 1
   75    67    23 1
   76    68    23 1
   77    69    22 1
   78    70    22 1
   79    71    22 1
   80    72    21 1
   81    73    21 1
   82    74    21 1
   83    75    20 1
   84    76    20 1
   85    77    20 1
   86    78    15 1
   87    79    15 1
   88    80    15 1
   89    81     8 1
   90    82     8 1
   91    83     8 1
   92    84     7 1
   93    85     7 1
   94    86     6 1
   95    87     6 1
   96    88     3 1
   97    89     3 1
   98    90     1 1
   99    91     1 1
  100    92    63 1
  101    93    63 1
  102    94    63 1
  103    95    62 1
  104    96    62 1
  105    97    62 1
  106    98    60 1
  107    99    60 1
  108   100    59 1
  109   101    59 1
  110   102    58 1
  111   103    58 1
  112   104    57 1
  113   105    57 1
  114   106    57 1
  115   107    55 1
  116   108    55 1
  117   109    54 1
  118   110    54 1
  119   111    53 1
  120   112    53 1
  121   113    19 1
  122   114    18 1
  123   115    17 1
  124   116     9 1
  125   117     2 1
  126   118    52 1
  127   119    52 1
  128   120    52 1
  129   121    51 1
  130   122    50 1
  131   123    50 1
  132   124    49 1
  133   125    49 1
  134   126    48 1
  135   127    48 1
  136   128    43 1
  137   129    43 1
  138   130    43 1
  139   131    39 1
  140   132    32 1
  141   133    31 1
  142   134    61 1
  143   135    56 1
  144   136    24 1
  145   137    24 1
  146   139   138 1
  147   140   139 1
  148   141   140 1
  149   142   140 1
  150   143   142 1
  151   144   138 1
  152   144   143 1
  153   145   144 1
  154   146   145 1
  155   147   146 1
  156   148   147 1
  157   149   148 1
  158   150   149 1
  159   151   150 1
  160   152   151 1
  161   153   152 1
  162   154   138 1
  163   155   138 1
  164   156   143 1
  165   157   147 1
  166   158   151 1
  167   160   159 1
  168   161   160 1
  169   162   161 1
  170   163   161 1
  171   164   163 1
  172   165   159 1
  173   165   164 1
  174   166   165 1
  175   167   166 1
  176   168   167 1
  177   169   168 1
  178   170   169 1
  179   171   170 1
  180   172   171 1
  181   173   172 1
  182   174   153 1
  183   174   173 1
  184   175   159 1
  185   176   159 1
  186   177   164 1
  187   178   168 1
  188   179   172 1
  189   180   179 1
  190   181   179 1
  191   182   179 1
  192   183   178 1
  193   184   178 1
  194   185   178 1
  195   186   177 1
  196   187   177 1
  197   188   177 1
  198   189   176 1
  199   190   176 1
  200   191   176 1
  201   192   175 1
  202   193   175 1
  203   194   175 1
  204   195   160 1
  205   196   160 1
  206   197   158 1
  207   198   158 1
  208   199   158 1
  209   200   157 1
  210   201   157 1
  211   202   157 1
  212   203   156 1
  213   204   156 1
  214   205   156 1
  215   206   155 1
  216   207   155 1
  217   208   155 1
  218   209   154 1
  219   210   154 1
  220   211   154 1
  221   212   141 1
  222   213   146 1
  223   214   145 1
  224   215   142 1
  225   216   142 1
  226   217   174 1
  227   218   173 1
  228   219   171 1
  229   220   170 1
  230   221   169 1
  231   222   140 1
  232   223   167 1
  233   224   166 1
  234   225   165 1
  235   226   163 1
  236   227   161 1
  237   228   139 1
  238   229   139 1
  239   230   153 1
  240   231   152 1
  241   232   150 1
  242   233   149 1
  243   234   148 1
  244   235   162 1
  245   65    153 1
  246   65    174 1
@<TRIPOS>SUBSTRUCTURE
      1 CLA               1 ****               0 ****  **** 
      2 LUT             138 ****               0 ****  **** 
