@<TRIPOS>MOLECULE
Cpptraj generated mol2 file.
  235   246     2     0     0
SMALL
USER_CHARGES


@<TRIPOS>ATOM
      1 CAA        80.1149   59.4498   34.2263 a2         1 CLA     -0.055900
      2 CAB        79.6914   61.9348   43.5798 c8         1 CLA     -0.148500
      3 CAC        72.8643   58.3025   42.1949 a2         1 CLA     -0.012600
      4 CAD        75.8360   57.3210   34.5202 ck         1 CLA      0.398800
      5 NA         79.0635   59.3147   37.6161 ns         1 CLA     -0.225500
      6 CBA        81.4158   59.3826   33.3818 a2         1 CLA     -0.135000
      7 CBB        80.2833   62.9940   44.1416 c0         1 CLA     -0.395200
      8 CBC        72.7825   56.7449   42.3718 a3         1 CLA     -0.037700
      9 CBD        77.3733   57.6838   34.4759 a1         1 CLA     -0.053900
     10 NB         78.6675   60.5573   40.2763 nm         1 CLA     -0.295700
     11 OBD        75.1529   56.9449   33.5551 o2         1 CLA     -0.494600
     12 CGA        81.9727   58.0419   32.8165 c4         1 CLA      0.827000
     13 CGD        78.1763   56.4247   34.0899 c4         1 CLA      0.655300
     14 ND         76.2295   58.6065   37.7522 nm         1 CLA     -0.291600
     15 CED        78.3020   54.0450   33.9552 a3         1 CLA      0.005400
     16 CHA        77.7095   58.3828   35.8394 cs         1 CLA     -0.123800
     17 CHB        80.6879   60.6540   38.7859 aa         1 CLA     -0.291900
     18 CHC        77.3139   60.5469   42.2776 aa         1 CLA     -0.090400
     19 CHD        74.2184   58.3213   39.2201 aa         1 CLA     -0.052000
     20 CMA        82.5268   58.7054   37.0236 a3         1 CLA     -0.230700
     21 CMB        81.8126   62.3874   41.1437 a3         1 CLA     -0.180800
     22 CMC        74.9197   59.8730   44.1796 a3         1 CLA     -0.134000
     23 CMD        72.9107   57.2633   36.4925 a3         1 CLA     -0.141100
     24 C1         82.8096   55.9399   33.3196 a2         1 CLA      0.023000
     25 C1A        78.9791   58.7706   36.3420 ac         1 CLA     -0.015100
     26 C1B        80.0309   60.9424   39.9842 cr         1 CLA      0.054700
     27 C1C        76.1694   59.9315   41.8320 cn         1 CLA     -0.005600
     28 C1D        74.8826   58.2450   37.9224 ap         1 CLA     -0.047300
     29 O1A        81.8659   57.6330   31.6256 o2         1 CLA     -0.610800
     30 O1D        79.2354   56.4867   33.4772 o2         1 CLA     -0.558200
     31 C2         83.5010   55.1564   34.3299 c8         1 CLA     -0.325100
     32 C2A        80.2813   58.7180   35.6198 a1         1 CLA      0.098600
     33 C2B        80.5191   61.6818   41.1386 cb         1 CLA      0.088500
     34 C2C        75.0718   59.6432   42.6681 cb         1 CLA      0.053700
     35 C2D        74.3205   57.6740   36.7150 cb         1 CLA      0.058900
     36 O2A        82.5231   57.2872   33.8150 o1         1 CLA     -0.437200
     37 O2D        77.5462   55.2072   34.4264 o1         1 CLA     -0.357600
     38 C3         84.5056   54.3150   34.0782 c5         1 CLA      0.031200
     39 C3A        81.2465   59.4456   36.6021 a1         1 CLA      0.166800
     40 C3B        79.6006   61.5316   42.1689 cb         1 CLA      0.035000
     41 C3C        74.1940   58.9377   41.7927 cb         1 CLA     -0.089900
     42 C3D        75.4173   57.6466   35.8742 cb         1 CLA     -0.035900
     43 C4         84.2849   52.7834   34.1142 a3         1 CLA     -0.053300
     44 C4A        80.2813   59.8595   37.7344 ac         1 CLA      0.001800
     45 C4B        78.4510   60.8459   41.6054 cn         1 CLA     -0.020900
     46 C4C        74.7329   58.9574   40.3988 cr         1 CLA     -0.044400
     47 C4D        76.5538   58.1636   36.5722 c6         1 CLA     -0.046000
     48 C5         85.9658   54.7313   33.8880 a2         1 CLA     -0.070400
     49 C6         86.3548   55.9876   34.7340 a2         1 CLA      0.043900
     50 C7         86.2755   55.6949   36.2184 a2         1 CLA     -0.150000
     51 C8         86.8135   56.8064   37.1257 a1         1 CLA      0.064200
     52 C9         88.3363   57.0675   36.9880 a3         1 CLA     -0.259300
     53 C10        86.3823   56.4256   38.5963 a2         1 CLA     -0.071900
     54 C11        86.1223   57.5950   39.5330 a2         1 CLA      0.014500
     55 C12        85.5238   57.1451   40.8814 a2         1 CLA     -0.112100
     56 C13        85.3107   58.2244   41.9832 a1         1 CLA      0.089200
     57 C14        86.5736   59.0172   42.1590 a3         1 CLA     -0.239100
     58 C15        85.0233   57.5549   43.3564 a2         1 CLA     -0.102200
     59 C16        83.5432   57.4074   43.7981 a2         1 CLA      0.023900
     60 C17        82.9502   58.8497   44.0460 a2         1 CLA     -0.105700
     61 C18        83.5892   59.7709   45.2032 a1         1 CLA      0.206800
     62 C19        82.9352   61.1949   45.3763 a3         1 CLA     -0.280100
     63 C20        83.8316   59.0887   46.6006 a3         1 CLA     -0.280100
     64 NC         75.9559   59.5344   40.5125 nx         1 CLA     -0.309200
     65 MG         77.4221   59.6137   38.9548 mg         1 CLA      0.895000
     66 HMD3       72.7079   57.3620   35.4062 dc         1 CLA      0.064300
     67 HMD2       72.8458   56.2560   36.7241 dc         1 CLA      0.064300
     68 HMD1       72.2253   57.8408   37.0684 dc         1 CLA      0.064300
     69 HMC3       74.4342   59.0923   44.7179 dc         1 CLA      0.052100
     70 HMC2       75.9253   60.0387   44.5683 dc         1 CLA      0.052100
     71 HMC1       74.2997   60.7809   44.2410 dc         1 CLA      0.052100
     72 HMB3       82.4223   61.7952   41.7271 dc         1 CLA      0.063600
     73 HMB2       82.1627   62.5382   40.1355 dc         1 CLA      0.063600
     74 HMB1       81.7227   63.4138   41.5608 dc         1 CLA      0.063600
     75 HMA3       83.2858   58.5812   36.2621 dc         1 CLA      0.058300
     76 HMA2       82.9923   59.1760   37.8360 dc         1 CLA      0.058300
     77 HMA1       82.1516   57.7505   37.4365 dc         1 CLA      0.058300
     78 HED3       77.7834   53.1634   34.2766 dc         1 CLA      0.079300
     79 HED2       78.4034   53.9346   32.8319 dc         1 CLA      0.079300
     80 HED1       79.3306   54.1114   34.3743 dc         1 CLA      0.079300
     81 HBC3       72.0344   56.5091   43.0787 dc         1 CLA      0.016300
     82 HBC2       72.5219   56.1877   41.4406 dc         1 CLA      0.016300
     83 HBC1       73.7666   56.3739   42.7957 dc         1 CLA      0.016300
     84 HBB2       80.0851   63.1289   45.2306 da         1 CLA      0.183000
     85 HBB1       81.0804   63.6087   43.6290 da         1 CLA      0.183000
     86 HBA2       81.3778   60.0727   32.5332 dc         1 CLA      0.029400
     87 HBA1       82.2777   59.7873   33.9067 dc         1 CLA      0.029400
     88 HAC2       72.3642   58.9096   42.9720 dc         1 CLA      0.029300
     89 HAC1       72.2203   58.4724   41.3400 dc         1 CLA      0.029300
     90 HAA2       79.3284   59.1303   33.6362 dc         1 CLA      0.028700
     91 HAA1       79.8399   60.4777   34.4372 dc         1 CLA      0.028700
     92 H203       84.3954   59.7626   47.1478 dc         1 CLA      0.065600
     93 H202       82.8352   58.9655   47.0728 dc         1 CLA      0.065600
     94 H201       84.4856   58.2435   46.4918 dc         1 CLA      0.065600
     95 H193       83.4320   61.7329   46.2190 dc         1 CLA      0.065600
     96 H192       82.8731   61.7177   44.3792 dc         1 CLA      0.065600
     97 H191       81.9039   60.9492   45.7475 dc         1 CLA      0.065600
     98 H172       83.0061   59.4348   43.0903 dc         1 CLA      0.027600
     99 H171       81.9005   58.7881   44.3542 dc         1 CLA      0.027600
    100 H162       82.9557   56.9415   43.0449 dc         1 CLA      0.002900
    101 H161       83.5493   56.7198   44.6218 dc         1 CLA      0.002900
    102 H152       85.3848   56.5211   43.2526 dc         1 CLA      0.029100
    103 H151       85.3103   57.9831   44.2764 dc         1 CLA      0.029100
    104 H143       87.4461   58.3861   42.4388 dc         1 CLA      0.063600
    105 H142       86.7065   59.5914   41.2331 dc         1 CLA      0.063600
    106 H141       86.3238   59.7575   42.9583 dc         1 CLA      0.063600
    107 H122       84.6157   56.5560   40.7223 dc         1 CLA      0.032500
    108 H121       86.2332   56.3444   41.1723 dc         1 CLA      0.032500
    109 H112       87.0503   58.1064   39.7327 dc         1 CLA      0.006600
    110 H111       85.3985   58.1892   38.9723 dc         1 CLA      0.006600
    111 H102       85.5191   55.7066   38.6012 dc         1 CLA      0.024100
    112 H101       87.0741   55.7422   39.0843 dc         1 CLA      0.024100
    113 HHD        73.2212   57.8771   39.2105 da         1 CLA      0.174300
    114 HHC        77.3066   60.8548   43.2928 da         1 CLA      0.136800
    115 HHB        81.7192   61.0375   38.8035 da         1 CLA      0.138300
    116 HBD        77.4029   58.4060   33.6697 dc         1 CLA      0.107700
    117 HAB        79.0882   61.3097   44.2563 da         1 CLA      0.155200
    118 H93        88.7110   57.8452   37.7034 dc         1 CLA      0.069500
    119 H92        88.9205   56.1044   37.0680 dc         1 CLA      0.069500
    120 H91        88.5442   57.5348   36.0057 dc         1 CLA      0.069500
    121 H8         86.2518   57.6662   36.7843 dc         1 CLA      0.029300
    122 H72        85.2163   55.4697   36.4337 dc         1 CLA      0.044400
    123 H71        86.8254   54.8414   36.5641 dc         1 CLA      0.044400
    124 H62        87.4165   56.2252   34.4726 dc         1 CLA      0.015600
    125 H61        85.7788   56.8963   34.4665 dc         1 CLA      0.015600
    126 H52        86.6945   53.9535   34.1002 dc         1 CLA      0.033200
    127 H51        86.0597   54.9819   32.8625 dc         1 CLA      0.033200
    128 H43        84.2867   52.4347   33.0790 dc         1 CLA      0.037000
    129 H42        85.1164   52.2317   34.5190 dc         1 CLA      0.037000
    130 H41        83.4198   52.4883   34.6484 dc         1 CLA      0.037000
    131 H3A        81.6400   60.2770   35.9929 dc         1 CLA      0.041100
    132 H2A        80.6050   57.7153   35.4701 dc         1 CLA      0.083100
    133 H2         83.2670   55.3733   35.3261 da         1 CLA      0.180900
    134 H18        84.5562   60.0871   44.7927 dc         1 CLA     -0.003900
    135 H13        84.5899   58.9399   41.5823 dc         1 CLA      0.019700
    136 H12        81.8756   55.4892   33.0344 dc         1 CLA      0.120400
    137 H11        83.5034   55.8856   32.4746 dc         1 CLA      0.120400
    138 C1         69.2133   61.4313   50.3576 Z1         2 LUT      0.509236
    139 C2         67.7682   61.3582   51.0020 Z2         2 LUT     -0.434695
    140 C3         67.1389   62.7311   51.4753 Z3         2 LUT      0.437453
    141 O3         67.4316   63.1152   52.8116 S1         2 LUT     -0.547129
    142 C4         67.5535   63.8804   50.6056 Z4         2 LUT     -0.468603
    143 C5         68.2747   63.5700   49.3041 Z5         2 LUT      0.279246
    144 C6         69.1624   62.5975   49.2767 Z6         2 LUT     -0.305473
    145 C7         69.6381   62.1368   47.9517 Z7         2 LUT      0.069402
    146 C8         70.6481   62.7108   47.2371 Z8         2 LUT     -0.191631
    147 C9         71.1471   62.4436   45.8409 Z9         2 LUT      0.196698
    148 C10        72.1982   63.1327   45.4495 Y1         2 LUT     -0.208611
    149 C11        72.8641   63.1350   44.1758 Y2         2 LUT      0.030784
    150 C12        74.0501   63.7764   43.9741 Y3         2 LUT     -0.220316
    151 C13        74.8255   63.5837   42.7610 Y4         2 LUT      0.215937
    152 C14        76.1562   64.0614   42.7276 Y5         2 LUT     -0.185793
    153 C15        77.0216   64.1892   41.5749 Y6         2 LUT     -0.057835
    154 C16        69.6148   59.9826   49.9720 Y7         2 LUT     -0.405615
    155 C17        70.1131   61.9426   51.4453 Y7         2 LUT     -0.405615
    156 C18        67.5676   64.2230   48.1121 Y9         2 LUT     -0.369639
    157 C19        70.4466   61.2601   45.0735 W1         2 LUT     -0.333362
    158 C20        74.0433   63.2792   41.5087 W2         2 LUT     -0.323439
    159 C21        88.1630   66.3837   35.1159 Z1         2 LUT      0.406104
    160 C22        89.0133   65.9762   33.8046 Z2         2 LUT     -0.404965
    161 C23        89.1963   66.9905   32.7861 Z3         2 LUT      0.391255
    162 O23        90.0755   66.6136   31.7725 S1         2 LUT     -0.528210
    163 C24        87.8848   67.7346   32.5121 W6         2 LUT     -0.258361
    164 C25        86.8026   67.5876   33.3134 Z5         2 LUT      0.133546
    165 C26        86.7566   66.7486   34.6374 W8         2 LUT     -0.147008
    166 C27        85.8440   67.3094   35.6838 Z7         2 LUT      0.023843
    167 C28        84.7969   66.6168   36.2631 Z8         2 LUT     -0.216987
    168 C29        84.0876   67.0875   37.4598 Z9         2 LUT      0.206524
    169 C30        83.0774   66.2623   37.9364 Y1         2 LUT     -0.215556
    170 C31        82.2100   66.4328   39.0367 Y2         2 LUT      0.025142
    171 C32        81.2674   65.5144   39.3458 Y3         2 LUT     -0.212209
    172 C33        80.3850   65.6330   40.5699 Y4         2 LUT      0.240937
    173 C34        79.1719   64.8953   40.5258 Y5         2 LUT     -0.218862
    174 C35        78.2193   64.8949   41.6344 Y6         2 LUT     -0.023547
    175 C36        89.0629   67.5135   35.7242 Y7         2 LUT     -0.393485
    176 C37        88.2943   65.2385   36.1481 Y7         2 LUT     -0.393485
    177 C38        85.4897   68.3174   33.0415 Y9         2 LUT     -0.387526
    178 C39        84.5138   68.3911   38.0581 W1         2 LUT     -0.322618
    179 C40        80.9050   66.5471   41.6632 W2         2 LUT     -0.358472
    180 H403       81.9825   66.4696   41.7305 R7         2 LUT      0.097720
    181 H402       80.7305   67.6275   41.5021 R7         2 LUT      0.097720
    182 H401       80.5322   66.3637   42.6845 R7         2 LUT      0.097720
    183 H393       83.8835   68.6216   38.9209 R4         2 LUT      0.082505
    184 H392       85.5517   68.4500   38.4327 R4         2 LUT      0.082505
    185 H391       84.3900   69.2340   37.3402 R4         2 LUT      0.082505
    186 H383       85.0397   68.9370   33.8369 R1         2 LUT      0.104030
    187 H382       85.5169   68.9898   32.1949 R1         2 LUT      0.104030
    188 H381       84.7062   67.6013   32.9519 R1         2 LUT      0.104030
    189 H373       87.8820   65.4302   37.1444 T4         2 LUT      0.089537
    190 H372       87.6167   64.4544   35.7953 T4         2 LUT      0.089537
    191 H371       89.3510   65.0071   36.2446 T4         2 LUT      0.089537
    192 H363       88.6389   67.7588   36.7764 T4         2 LUT      0.089537
    193 H362       90.0621   67.2421   35.7834 T4         2 LUT      0.089537
    194 H361       89.0068   68.3997   35.0340 T4         2 LUT      0.089537
    195 H222       90.0789   65.6412   33.9797 U2         2 LUT      0.127376
    196 H221       88.5741   65.0368   33.3789 U2         2 LUT      0.127376
    197 H203       73.5066   62.3772   41.7309 R7         2 LUT      0.087068
    198 H202       73.2952   64.0180   41.0919 R7         2 LUT      0.087068
    199 H201       74.6797   63.0513   40.6218 R7         2 LUT      0.087068
    200 H193       70.6069   60.3479   45.6300 R4         2 LUT      0.089716
    201 H192       69.3626   61.5296   45.1715 R4         2 LUT      0.089716
    202 H191       70.7168   61.0568   44.0361 R4         2 LUT      0.089716
    203 H183       66.4741   64.2554   48.2024 R1         2 LUT      0.094572
    204 H182       67.8688   65.2697   47.9964 R1         2 LUT      0.094572
    205 H181       67.8502   63.7457   47.1545 R1         2 LUT      0.094572
    206 H173       69.8028   62.8767   51.9446 T4         2 LUT      0.093752
    207 H172       70.0431   61.2266   52.2553 T4         2 LUT      0.093752
    208 H171       71.1683   62.0427   51.2011 T4         2 LUT      0.093752
    209 H163       68.8345   59.5196   49.2803 T4         2 LUT      0.093752
    210 H162       70.5766   59.9074   49.4950 T4         2 LUT      0.093752
    211 H161       69.6597   59.3026   50.7351 T4         2 LUT      0.093752
    212 HO3        67.0548   62.4863   53.3135 Q1         2 LUT      0.300121
    213 H8         71.0943   63.5180   47.7562 U7         2 LUT      0.080784
    214 H7         69.1058   61.3142   47.4669 U6         2 LUT      0.042190
    215 H42        66.6962   64.6052   50.4494 U5         2 LUT      0.145166
    216 H41        68.2656   64.4313   51.2355 U5         2 LUT      0.145166
    217 H35        78.4322   65.3187   42.6017 T3         2 LUT      0.077919
    218 H34        78.9361   64.1428   39.7403 T2         2 LUT      0.073626
    219 H32        80.9898   64.6776   38.7612 T1         2 LUT      0.092510
    220 H31        82.3772   67.3317   39.6814 U9         2 LUT      0.070048
    221 H30        82.8826   65.3036   37.4115 U8         2 LUT      0.085442
    222 H3         66.1004   62.6096   51.3868 U3         2 LUT     -0.031596
    223 H28        84.3281   65.7704   35.7326 U7         2 LUT      0.084728
    224 H27        86.1807   68.2192   36.1838 U6         2 LUT      0.087291
    225 H26        86.2898   65.7410   34.3387 Q6         2 LUT      0.075325
    226 H24        87.8506   68.3617   31.5818 Q5         2 LUT      0.094482
    227 H23        89.8096   67.6500   33.3973 U3         2 LUT     -0.024869
    228 H22        66.9984   60.8988   50.2802 U2         2 LUT      0.127376
    229 H21        67.6787   60.5178   51.8001 U2         2 LUT      0.127376
    230 H15        76.7131   63.7499   40.6578 T3         2 LUT      0.093200
    231 H14        76.5236   64.5742   43.6476 T2         2 LUT      0.068865
    232 H12        74.6175   64.2785   44.7698 T1         2 LUT      0.095507
    233 H11        72.3695   62.5991   43.4222 U9         2 LUT      0.068930
    234 H10        72.5477   63.9462   46.1414 U8         2 LUT      0.083911
    235 H1         89.5248   66.5797   30.9917 Q1         2 LUT      0.297311
@<TRIPOS>BOND
    1     6     1 1
    2     7     2 1
    3     8     3 1
    4     9     4 1
    5    11     4 1
    6    12     6 1
    7    13     9 1
    8    16     9 1
    9    25     5 1
   10    25    16 1
   11    26    10 1
   12    26    17 1
   13    27    18 1
   14    28    14 1
   15    28    19 1
   16    29    12 1
   17    30    13 1
   18    31    24 1
   19    32     1 1
   20    32    25 1
   21    33    21 1
   22    33    26 1
   23    34    22 1
   24    34    27 1
   25    35    23 1
   26    35    28 1
   27    36    12 1
   28    36    24 1
   29    37    13 1
   30    37    15 1
   31    38    31 1
   32    39    20 1
   33    39    32 1
   34    40     2 1
   35    40    33 1
   36    41     3 1
   37    41    34 1
   38    42     4 1
   39    42    35 1
   40    43    38 1
   41    44     5 1
   42    44    17 1
   43    44    39 1
   44    45    10 1
   45    45    18 1
   46    45    40 1
   47    46    19 1
   48    46    41 1
   49    47    14 1
   50    47    16 1
   51    47    42 1
   52    48    38 1
   53    49    48 1
   54    50    49 1
   55    51    50 1
   56    52    51 1
   57    53    51 1
   58    54    53 1
   59    55    54 1
   60    56    55 1
   61    57    56 1
   62    58    56 1
   63    59    58 1
   64    60    59 1
   65    61    60 1
   66    62    61 1
   67    63    61 1
   68    64    27 1
   69    64    46 1
   70    65     5 1
   71    65    10 1
   72    65    64 1
   73    65    14 1
   74    66    23 1
   75    67    23 1
   76    68    23 1
   77    69    22 1
   78    70    22 1
   79    71    22 1
   80    72    21 1
   81    73    21 1
   82    74    21 1
   83    75    20 1
   84    76    20 1
   85    77    20 1
   86    78    15 1
   87    79    15 1
   88    80    15 1
   89    81     8 1
   90    82     8 1
   91    83     8 1
   92    84     7 1
   93    85     7 1
   94    86     6 1
   95    87     6 1
   96    88     3 1
   97    89     3 1
   98    90     1 1
   99    91     1 1
  100    92    63 1
  101    93    63 1
  102    94    63 1
  103    95    62 1
  104    96    62 1
  105    97    62 1
  106    98    60 1
  107    99    60 1
  108   100    59 1
  109   101    59 1
  110   102    58 1
  111   103    58 1
  112   104    57 1
  113   105    57 1
  114   106    57 1
  115   107    55 1
  116   108    55 1
  117   109    54 1
  118   110    54 1
  119   111    53 1
  120   112    53 1
  121   113    19 1
  122   114    18 1
  123   115    17 1
  124   116     9 1
  125   117     2 1
  126   118    52 1
  127   119    52 1
  128   120    52 1
  129   121    51 1
  130   122    50 1
  131   123    50 1
  132   124    49 1
  133   125    49 1
  134   126    48 1
  135   127    48 1
  136   128    43 1
  137   129    43 1
  138   130    43 1
  139   131    39 1
  140   132    32 1
  141   133    31 1
  142   134    61 1
  143   135    56 1
  144   136    24 1
  145   137    24 1
  146   139   138 1
  147   140   139 1
  148   141   140 1
  149   142   140 1
  150   143   142 1
  151   144   138 1
  152   144   143 1
  153   145   144 1
  154   146   145 1
  155   147   146 1
  156   148   147 1
  157   149   148 1
  158   150   149 1
  159   151   150 1
  160   152   151 1
  161   153   152 1
  162   154   138 1
  163   155   138 1
  164   156   143 1
  165   157   147 1
  166   158   151 1
  167   160   159 1
  168   161   160 1
  169   162   161 1
  170   163   161 1
  171   164   163 1
  172   165   159 1
  173   165   164 1
  174   166   165 1
  175   167   166 1
  176   168   167 1
  177   169   168 1
  178   170   169 1
  179   171   170 1
  180   172   171 1
  181   173   172 1
  182   174   153 1
  183   174   173 1
  184   175   159 1
  185   176   159 1
  186   177   164 1
  187   178   168 1
  188   179   172 1
  189   180   179 1
  190   181   179 1
  191   182   179 1
  192   183   178 1
  193   184   178 1
  194   185   178 1
  195   186   177 1
  196   187   177 1
  197   188   177 1
  198   189   176 1
  199   190   176 1
  200   191   176 1
  201   192   175 1
  202   193   175 1
  203   194   175 1
  204   195   160 1
  205   196   160 1
  206   197   158 1
  207   198   158 1
  208   199   158 1
  209   200   157 1
  210   201   157 1
  211   202   157 1
  212   203   156 1
  213   204   156 1
  214   205   156 1
  215   206   155 1
  216   207   155 1
  217   208   155 1
  218   209   154 1
  219   210   154 1
  220   211   154 1
  221   212   141 1
  222   213   146 1
  223   214   145 1
  224   215   142 1
  225   216   142 1
  226   217   174 1
  227   218   173 1
  228   219   171 1
  229   220   170 1
  230   221   169 1
  231   222   140 1
  232   223   167 1
  233   224   166 1
  234   225   165 1
  235   226   163 1
  236   227   161 1
  237   228   139 1
  238   229   139 1
  239   230   153 1
  240   231   152 1
  241   232   150 1
  242   233   149 1
  243   234   148 1
  244   235   162 1
  245   65    153 1
  246   65    174 1
@<TRIPOS>SUBSTRUCTURE
      1 CLA               1 ****               0 ****  **** 
      2 LUT             138 ****               0 ****  **** 
