@<TRIPOS>MOLECULE
Cpptraj generated mol2 file.
  235   246     2     0     0
SMALL
USER_CHARGES


@<TRIPOS>ATOM
      1 CAA        76.8884   57.9751   32.9519 a2         1 CLA     -0.055900
      2 CAB        76.8908   61.0902   42.3007 c8         1 CLA     -0.148500
      3 CAC        69.8580   57.4330   41.4598 a2         1 CLA     -0.012600
      4 CAD        72.6961   55.4734   34.0520 ck         1 CLA      0.398800
      5 NA         75.8951   58.2468   36.5314 ns         1 CLA     -0.225500
      6 CBA        78.0623   57.5767   32.0895 a2         1 CLA     -0.135000
      7 CBB        78.0585   61.3272   42.9406 c0         1 CLA     -0.395200
      8 CBC        69.7916   55.8786   41.5339 a3         1 CLA     -0.037700
      9 CBD        74.1313   56.0415   33.7392 a1         1 CLA     -0.053900
     10 NB         75.7149   59.4608   39.0833 nm         1 CLA     -0.295700
     11 OBD        72.0874   54.6851   33.3066 o2         1 CLA     -0.494600
     12 CGA        78.4520   56.1217   31.7849 c4         1 CLA      0.827000
     13 CGD        75.0832   54.9110   33.5408 c4         1 CLA      0.655300
     14 ND         73.0937   57.2724   36.9944 nm         1 CLA     -0.291600
     15 CED        75.8250   52.7704   34.5473 a3         1 CLA      0.005400
     16 CHA        74.4864   56.9008   34.9934 cs         1 CLA     -0.123800
     17 CHB        77.6826   59.4128   37.6601 aa         1 CLA     -0.291900
     18 CHC        74.3159   59.6787   41.1821 aa         1 CLA     -0.090400
     19 CHD        71.2874   56.9610   38.6492 aa         1 CLA     -0.052000
     20 CMA        79.3363   57.6728   35.6387 a3         1 CLA     -0.230700
     21 CMB        79.1071   60.9517   39.8960 a3         1 CLA     -0.180800
     22 CMC        72.0412   59.1267   43.1980 a3         1 CLA     -0.134000
     23 CMD        69.9766   55.1437   36.2666 a3         1 CLA     -0.141100
     24 C1         79.6357   54.2044   32.7113 a2         1 CLA      0.023000
     25 C1A        75.6996   57.5826   35.2952 ac         1 CLA     -0.015100
     26 C1B        77.0353   59.7912   38.8314 cr         1 CLA      0.054700
     27 C1C        73.2079   58.9580   40.8582 cn         1 CLA     -0.005600
     28 C1D        71.8066   56.6916   37.3893 ap         1 CLA     -0.047300
     29 O1A        78.2149   55.5321   30.7451 o2         1 CLA     -0.610800
     30 O1D        75.8249   54.7250   32.5985 o2         1 CLA     -0.558200
     31 C2         80.1307   53.9544   34.1415 c8         1 CLA     -0.325100
     32 C2A        77.0186   57.5187   34.4655 a1         1 CLA      0.098600
     33 C2B        77.7004   60.5196   39.9320 cb         1 CLA      0.088500
     34 C2C        72.1011   58.6958   41.7717 cb         1 CLA      0.053700
     35 C2D        71.3389   55.8856   36.3205 cb         1 CLA      0.058900
     36 O2A        79.1668   55.6149   32.8086 o1         1 CLA     -0.437200
     37 O2D        74.9047   53.9257   34.4981 o1         1 CLA     -0.357600
     38 C3         80.8390   52.7893   34.5029 c5         1 CLA      0.031200
     39 C3A        78.0230   58.4352   35.3541 a1         1 CLA      0.166800
     40 C3B        76.7454   60.5235   40.9241 cb         1 CLA      0.035000
     41 C3C        71.1815   58.0154   40.9788 cb         1 CLA     -0.089900
     42 C3D        72.3117   56.0170   35.3772 cb         1 CLA     -0.035900
     43 C4         80.1946   51.4371   34.9446 a3         1 CLA     -0.053300
     44 C4A        77.1522   58.7087   36.6016 ac         1 CLA      0.001800
     45 C4B        75.5175   59.9258   40.4071 cn         1 CLA     -0.020900
     46 C4C        71.7768   57.7413   39.6799 cr         1 CLA     -0.044400
     47 C4D        73.3675   56.8196   35.8172 c6         1 CLA     -0.046000
     48 C5         82.3207   52.6885   34.2060 a2         1 CLA     -0.070400
     49 C6         83.0842   53.9993   34.5521 a2         1 CLA      0.043900
     50 C7         83.0304   54.3032   36.0669 a2         1 CLA     -0.150000
     51 C8         83.8849   55.4954   36.5450 a1         1 CLA      0.064200
     52 C9         85.3728   55.2356   36.3269 a3         1 CLA     -0.259300
     53 C10        83.6816   55.9280   38.0017 a2         1 CLA     -0.071900
     54 C11        82.2510   56.0601   38.4665 a2         1 CLA      0.014500
     55 C12        82.2834   56.4882   39.9817 a2         1 CLA     -0.112100
     56 C13        80.9186   56.5473   40.7834 a1         1 CLA      0.089200
     57 C14        79.9178   57.4444   40.0661 a3         1 CLA     -0.239100
     58 C15        81.1076   57.0061   42.2118 a2         1 CLA     -0.102200
     59 C16        81.8422   58.3512   42.4332 a2         1 CLA      0.023900
     60 C17        81.8913   58.6722   43.9224 a2         1 CLA     -0.105700
     61 C18        82.3785   60.0774   44.4619 a1         1 CLA      0.206800
     62 C19        83.9218   60.2547   44.1976 a3         1 CLA     -0.280100
     63 C20        81.5716   61.3174   43.9815 a3         1 CLA     -0.280100
     64 NC         73.0518   58.2975   39.6972 nx         1 CLA     -0.309200
     65 MG         74.4267   58.4739   38.0520 mg         1 CLA      0.895000
     66 HMD3       69.8761   54.7194   35.2852 dc         1 CLA      0.064300
     67 HMD2       70.0309   54.3911   37.0551 dc         1 CLA      0.064300
     68 HMD1       69.1722   55.8581   36.5149 dc         1 CLA      0.064300
     69 HMC3       72.6061   58.3816   43.7970 dc         1 CLA      0.052100
     70 HMC2       72.5610   60.0801   43.3052 dc         1 CLA      0.052100
     71 HMC1       70.9943   59.2489   43.4796 dc         1 CLA      0.052100
     72 HMB3       79.7807   60.3517   40.4851 dc         1 CLA      0.063600
     73 HMB2       79.5249   60.9492   38.8866 dc         1 CLA      0.063600
     74 HMB1       79.1384   61.9547   40.2432 dc         1 CLA      0.063600
     75 HMA3       79.9834   58.1189   36.3873 dc         1 CLA      0.058300
     76 HMA2       79.0371   56.7167   36.0752 dc         1 CLA      0.058300
     77 HMA1       79.8966   57.4895   34.7761 dc         1 CLA      0.058300
     78 HED3       75.9144   52.2839   33.5891 dc         1 CLA      0.079300
     79 HED2       76.7231   53.0878   35.0928 dc         1 CLA      0.079300
     80 HED1       75.2808   52.0942   35.1095 dc         1 CLA      0.079300
     81 HBC3       68.9930   55.4708   42.0772 dc         1 CLA      0.016300
     82 HBC2       69.8802   55.3231   40.5575 dc         1 CLA      0.016300
     83 HBC1       70.6858   55.5420   42.1471 dc         1 CLA      0.016300
     84 HBB2       78.0190   61.6814   43.9159 da         1 CLA      0.183000
     85 HBB1       79.0367   61.4193   42.4245 da         1 CLA      0.183000
     86 HBA2       77.6375   58.0308   31.1396 dc         1 CLA      0.029400
     87 HBA1       79.0085   58.0345   32.4308 dc         1 CLA      0.029400
     88 HAC2       69.5814   57.7779   42.5186 dc         1 CLA      0.029300
     89 HAC1       68.9469   57.7259   40.8654 dc         1 CLA      0.029300
     90 HAA2       76.0194   57.5698   32.5096 dc         1 CLA      0.028700
     91 HAA1       76.7245   59.0274   32.8019 dc         1 CLA      0.028700
     92 H203       82.0290   62.2283   44.4294 dc         1 CLA      0.065600
     93 H202       81.5602   61.3094   42.8974 dc         1 CLA      0.065600
     94 H201       80.5447   61.0243   44.3021 dc         1 CLA      0.065600
     95 H193       83.9482   60.1881   43.0556 dc         1 CLA      0.065600
     96 H192       84.2620   61.1756   44.6588 dc         1 CLA      0.065600
     97 H191       84.5535   59.4518   44.6230 dc         1 CLA      0.065600
     98 H172       80.9154   58.3263   44.2591 dc         1 CLA      0.027600
     99 H171       82.5745   57.9867   44.3574 dc         1 CLA      0.027600
    100 H162       82.8109   58.2945   42.0234 dc         1 CLA      0.002900
    101 H161       81.2537   59.1708   41.9596 dc         1 CLA      0.002900
    102 H152       80.0627   56.9952   42.6804 dc         1 CLA      0.029100
    103 H151       81.7677   56.3184   42.7618 dc         1 CLA      0.029100
    104 H143       79.0369   57.6075   40.6719 dc         1 CLA      0.063600
    105 H142       80.3699   58.4170   39.8893 dc         1 CLA      0.063600
    106 H141       79.6913   57.0107   39.1486 dc         1 CLA      0.063600
    107 H122       82.9446   55.8853   40.5569 dc         1 CLA      0.032500
    108 H121       82.7519   57.4123   39.9529 dc         1 CLA      0.032500
    109 H112       81.7148   56.7587   37.8430 dc         1 CLA      0.006600
    110 H111       81.6705   55.1559   38.3371 dc         1 CLA      0.006600
    111 H102       84.2126   55.2268   38.6577 dc         1 CLA      0.024100
    112 H101       84.2402   56.8680   38.1412 dc         1 CLA      0.024100
    113 HHD        70.2541   56.6448   38.8674 da         1 CLA      0.174300
    114 HHC        74.4212   59.9282   42.2298 da         1 CLA      0.136800
    115 HHB        78.6954   59.8687   37.4750 da         1 CLA      0.138300
    116 HBD        74.1105   56.7293   32.8885 dc         1 CLA      0.107700
    117 HAB        76.0065   61.1098   42.9687 da         1 CLA      0.155200
    118 H93        85.5678   54.8767   35.3334 dc         1 CLA      0.069500
    119 H92        86.0292   56.1204   36.5762 dc         1 CLA      0.069500
    120 H91        85.6259   54.4206   36.9845 dc         1 CLA      0.069500
    121 H8         83.7119   56.3121   35.7843 dc         1 CLA      0.029300
    122 H72        82.0336   54.6192   36.1978 dc         1 CLA      0.044400
    123 H71        83.2829   53.5311   36.7254 dc         1 CLA      0.044400
    124 H62        84.1176   53.8430   34.3213 dc         1 CLA      0.015600
    125 H61        82.7385   54.7507   33.9023 dc         1 CLA      0.015600
    126 H52        82.7049   51.8227   34.7455 dc         1 CLA      0.033200
    127 H51        82.3996   52.5786   33.1323 dc         1 CLA      0.033200
    128 H43        80.5421   51.1991   35.9703 dc         1 CLA      0.037000
    129 H42        79.1628   51.5953   35.0099 dc         1 CLA      0.037000
    130 H41        80.4917   50.6419   34.3129 dc         1 CLA      0.037000
    131 H3A        78.2577   59.3959   34.9077 dc         1 CLA      0.041100
    132 H2A        77.4594   56.4538   34.4273 dc         1 CLA      0.083100
    133 H2         80.1204   54.7510   34.8064 da         1 CLA      0.180900
    134 H18        82.2956   60.1199   45.5304 dc         1 CLA     -0.003900
    135 H13        80.3801   55.6054   40.7383 dc         1 CLA      0.019700
    136 H12        78.8395   53.5468   32.4074 dc         1 CLA      0.120400
    137 H11        80.4311   54.0855   31.9973 dc         1 CLA      0.120400
    138 C1         67.0205   61.0796   49.1274 Z1         2 LUT      0.509236
    139 C2         67.1216   62.2275   50.1331 Z2         2 LUT     -0.434695
    140 C3         65.7802   62.9379   50.2961 Z3         2 LUT      0.437453
    141 O3         66.0917   64.0460   51.1236 S1         2 LUT     -0.547129
    142 C4         65.2691   63.3811   48.9508 Z4         2 LUT     -0.468603
    143 C5         65.6831   62.6025   47.7242 Z5         2 LUT      0.279246
    144 C6         66.5373   61.5557   47.7767 Z6         2 LUT     -0.305473
    145 C7         67.3363   61.1641   46.6690 Z7         2 LUT      0.069402
    146 C8         68.2132   61.8699   45.9444 Z8         2 LUT     -0.191631
    147 C9         68.7580   61.4191   44.5869 Z9         2 LUT      0.196698
    148 C10        69.7332   62.1678   44.0802 Y1         2 LUT     -0.208611
    149 C11        70.3723   62.0440   42.7746 Y2         2 LUT      0.030784
    150 C12        71.4922   62.6014   42.3629 Y3         2 LUT     -0.220316
    151 C13        72.2017   62.3796   41.1197 Y4         2 LUT      0.215937
    152 C14        73.4580   62.8537   41.1353 Y5         2 LUT     -0.185793
    153 C15        74.3668   63.0629   40.0522 Y6         2 LUT     -0.057835
    154 C16        65.9741   60.0918   49.6650 Y7         2 LUT     -0.405615
    155 C17        68.4030   60.3688   49.1250 Y7         2 LUT     -0.405615
    156 C18        65.3237   63.4165   46.5214 Y9         2 LUT     -0.369639
    157 C19        68.2591   60.1089   44.0095 W1         2 LUT     -0.333362
    158 C20        71.5713   61.7804   39.9498 W2         2 LUT     -0.323439
    159 C21        85.7721   64.3977   33.8923 Z1         2 LUT      0.406104
    160 C22        86.3066   63.6700   32.6392 Z2         2 LUT     -0.404965
    161 C23        86.5707   64.5298   31.3681 Z3         2 LUT      0.391255
    162 O23        86.7611   63.5864   30.3071 S1         2 LUT     -0.528210
    163 C24        85.4399   65.4607   31.2549 W6         2 LUT     -0.258361
    164 C25        84.4874   65.7309   32.1027 Z5         2 LUT      0.133546
    165 C26        84.3527   64.9476   33.4405 W8         2 LUT     -0.147008
    166 C27        83.6220   65.6674   34.5693 Z7         2 LUT      0.023843
    167 C28        82.4352   65.1507   35.0934 Z8         2 LUT     -0.216987
    168 C29        81.6505   65.5780   36.2254 Z9         2 LUT      0.206524
    169 C30        80.5087   64.9027   36.6607 Y1         2 LUT     -0.215556
    170 C31        79.7858   64.9907   37.8839 Y2         2 LUT      0.025142
    171 C32        78.7040   64.2665   38.2854 Y3         2 LUT     -0.212209
    172 C33        77.8169   64.4750   39.3280 Y4         2 LUT      0.240937
    173 C34        76.5893   63.8340   39.3300 Y5         2 LUT     -0.218862
    174 C35        75.5157   63.7412   40.2727 Y6         2 LUT     -0.023547
    175 C36        86.7643   65.4962   34.3062 Y7         2 LUT     -0.393485
    176 C37        85.7346   63.3928   35.1574 Y7         2 LUT     -0.393485
    177 C38        83.3366   66.6362   31.7577 Y9         2 LUT     -0.387526
    178 C39        82.1747   66.7887   36.8539 W1         2 LUT     -0.322618
    179 C40        78.2306   65.4540   40.3856 W2         2 LUT     -0.358472
    180 H403       77.9944   66.4370   40.0157 R7         2 LUT      0.097720
    181 H402       77.7583   65.4191   41.3904 R7         2 LUT      0.097720
    182 H401       79.2922   65.5195   40.5414 R7         2 LUT      0.097720
    183 H393       81.5667   67.2162   37.5569 R4         2 LUT      0.082505
    184 H392       83.1244   66.4177   37.3453 R4         2 LUT      0.082505
    185 H391       82.3761   67.4731   36.0453 R4         2 LUT      0.082505
    186 H383       82.9931   67.2285   32.6531 R1         2 LUT      0.104030
    187 H382       83.5850   67.2665   30.9044 R1         2 LUT      0.104030
    188 H381       82.4741   66.0178   31.4930 R1         2 LUT      0.104030
    189 H373       84.9993   62.5880   34.8796 T4         2 LUT      0.089537
    190 H372       86.6949   62.8741   35.3994 T4         2 LUT      0.089537
    191 H371       85.4113   63.8766   36.1111 T4         2 LUT      0.089537
    192 H363       87.6698   65.1418   34.7042 T4         2 LUT      0.089537
    193 H362       87.0117   66.1469   33.4967 T4         2 LUT      0.089537
    194 H361       86.3453   66.1686   35.0976 T4         2 LUT      0.089537
    195 H222       87.2035   63.0687   32.9138 U2         2 LUT      0.127376
    196 H221       85.6287   62.8358   32.3037 U2         2 LUT      0.127376
    197 H203       70.6964   62.2855   39.6472 R7         2 LUT      0.087068
    198 H202       72.1986   61.6360   39.0537 R7         2 LUT      0.087068
    199 H201       71.0246   60.8857   40.1108 R7         2 LUT      0.087068
    200 H193       68.5375   59.8875   42.9476 R4         2 LUT      0.089716
    201 H192       68.5939   59.2902   44.6262 R4         2 LUT      0.089716
    202 H191       67.1696   60.1022   44.0093 R4         2 LUT      0.089716
    203 H183       65.9717   64.2738   46.4668 R1         2 LUT      0.094572
    204 H182       65.5485   62.8403   45.6610 R1         2 LUT      0.094572
    205 H181       64.2548   63.6180   46.5916 R1         2 LUT      0.094572
    206 H173       69.2599   61.0586   49.0629 T4         2 LUT      0.093752
    207 H172       68.6108   59.9349   50.1174 T4         2 LUT      0.093752
    208 H171       68.4749   59.6130   48.3780 T4         2 LUT      0.093752
    209 H163       66.2388   59.7918   50.6340 T4         2 LUT      0.093752
    210 H162       64.9300   60.4701   49.6788 T4         2 LUT      0.093752
    211 H161       66.0756   59.2160   48.9729 T4         2 LUT      0.093752
    212 HO3        65.3700   64.3347   51.6681 Q1         2 LUT      0.300121
    213 H8         68.4934   62.8314   46.3286 U7         2 LUT      0.080784
    214 H7         67.2148   60.0995   46.4333 U6         2 LUT      0.042190
    215 H42        64.1273   63.3357   49.1013 U5         2 LUT      0.145166
    216 H41        65.7472   64.3639   48.8319 U5         2 LUT      0.145166
    217 H35        75.6931   64.0798   41.3306 T3         2 LUT      0.077919
    218 H34        76.5204   63.1527   38.5175 T2         2 LUT      0.073626
    219 H32        78.5184   63.4631   37.5709 T1         2 LUT      0.092510
    220 H31        80.1229   65.7710   38.4954 U9         2 LUT      0.070048
    221 H30        80.1165   64.0738   36.0841 U8         2 LUT      0.085442
    222 H3         64.9371   62.3433   50.6779 U3         2 LUT     -0.031596
    223 H28        81.8336   64.4856   34.5102 U7         2 LUT      0.084728
    224 H27        84.2129   66.4429   35.0816 U6         2 LUT      0.087291
    225 H26        83.7153   64.0846   33.2974 Q6         2 LUT      0.075325
    226 H24        85.4527   65.9329   30.2879 Q5         2 LUT      0.094482
    227 H23        87.5091   65.0803   31.5340 U3         2 LUT     -0.024869
    228 H22        67.4533   61.8353   51.1269 U2         2 LUT      0.127376
    229 H21        67.8121   62.9416   49.7312 U2         2 LUT      0.127376
    230 H15        74.2188   62.7324   39.0049 T3         2 LUT      0.093200
    231 H14        73.8048   63.3595   42.0342 T2         2 LUT      0.068865
    232 H12        72.0038   63.1669   43.1607 T1         2 LUT      0.095507
    233 H11        70.0344   61.2454   42.0618 U9         2 LUT      0.068930
    234 H10        70.0518   62.9537   44.6815 U8         2 LUT      0.083911
    235 H1         86.8460   63.9973   29.4728 Q1         2 LUT      0.297311
@<TRIPOS>BOND
    1     6     1 1
    2     7     2 1
    3     8     3 1
    4     9     4 1
    5    11     4 1
    6    12     6 1
    7    13     9 1
    8    16     9 1
    9    25     5 1
   10    25    16 1
   11    26    10 1
   12    26    17 1
   13    27    18 1
   14    28    14 1
   15    28    19 1
   16    29    12 1
   17    30    13 1
   18    31    24 1
   19    32     1 1
   20    32    25 1
   21    33    21 1
   22    33    26 1
   23    34    22 1
   24    34    27 1
   25    35    23 1
   26    35    28 1
   27    36    12 1
   28    36    24 1
   29    37    13 1
   30    37    15 1
   31    38    31 1
   32    39    20 1
   33    39    32 1
   34    40     2 1
   35    40    33 1
   36    41     3 1
   37    41    34 1
   38    42     4 1
   39    42    35 1
   40    43    38 1
   41    44     5 1
   42    44    17 1
   43    44    39 1
   44    45    10 1
   45    45    18 1
   46    45    40 1
   47    46    19 1
   48    46    41 1
   49    47    14 1
   50    47    16 1
   51    47    42 1
   52    48    38 1
   53    49    48 1
   54    50    49 1
   55    51    50 1
   56    52    51 1
   57    53    51 1
   58    54    53 1
   59    55    54 1
   60    56    55 1
   61    57    56 1
   62    58    56 1
   63    59    58 1
   64    60    59 1
   65    61    60 1
   66    62    61 1
   67    63    61 1
   68    64    27 1
   69    64    46 1
   70    65     5 1
   71    65    10 1
   72    65    64 1
   73    65    14 1
   74    66    23 1
   75    67    23 1
   76    68    23 1
   77    69    22 1
   78    70    22 1
   79    71    22 1
   80    72    21 1
   81    73    21 1
   82    74    21 1
   83    75    20 1
   84    76    20 1
   85    77    20 1
   86    78    15 1
   87    79    15 1
   88    80    15 1
   89    81     8 1
   90    82     8 1
   91    83     8 1
   92    84     7 1
   93    85     7 1
   94    86     6 1
   95    87     6 1
   96    88     3 1
   97    89     3 1
   98    90     1 1
   99    91     1 1
  100    92    63 1
  101    93    63 1
  102    94    63 1
  103    95    62 1
  104    96    62 1
  105    97    62 1
  106    98    60 1
  107    99    60 1
  108   100    59 1
  109   101    59 1
  110   102    58 1
  111   103    58 1
  112   104    57 1
  113   105    57 1
  114   106    57 1
  115   107    55 1
  116   108    55 1
  117   109    54 1
  118   110    54 1
  119   111    53 1
  120   112    53 1
  121   113    19 1
  122   114    18 1
  123   115    17 1
  124   116     9 1
  125   117     2 1
  126   118    52 1
  127   119    52 1
  128   120    52 1
  129   121    51 1
  130   122    50 1
  131   123    50 1
  132   124    49 1
  133   125    49 1
  134   126    48 1
  135   127    48 1
  136   128    43 1
  137   129    43 1
  138   130    43 1
  139   131    39 1
  140   132    32 1
  141   133    31 1
  142   134    61 1
  143   135    56 1
  144   136    24 1
  145   137    24 1
  146   139   138 1
  147   140   139 1
  148   141   140 1
  149   142   140 1
  150   143   142 1
  151   144   138 1
  152   144   143 1
  153   145   144 1
  154   146   145 1
  155   147   146 1
  156   148   147 1
  157   149   148 1
  158   150   149 1
  159   151   150 1
  160   152   151 1
  161   153   152 1
  162   154   138 1
  163   155   138 1
  164   156   143 1
  165   157   147 1
  166   158   151 1
  167   160   159 1
  168   161   160 1
  169   162   161 1
  170   163   161 1
  171   164   163 1
  172   165   159 1
  173   165   164 1
  174   166   165 1
  175   167   166 1
  176   168   167 1
  177   169   168 1
  178   170   169 1
  179   171   170 1
  180   172   171 1
  181   173   172 1
  182   174   153 1
  183   174   173 1
  184   175   159 1
  185   176   159 1
  186   177   164 1
  187   178   168 1
  188   179   172 1
  189   180   179 1
  190   181   179 1
  191   182   179 1
  192   183   178 1
  193   184   178 1
  194   185   178 1
  195   186   177 1
  196   187   177 1
  197   188   177 1
  198   189   176 1
  199   190   176 1
  200   191   176 1
  201   192   175 1
  202   193   175 1
  203   194   175 1
  204   195   160 1
  205   196   160 1
  206   197   158 1
  207   198   158 1
  208   199   158 1
  209   200   157 1
  210   201   157 1
  211   202   157 1
  212   203   156 1
  213   204   156 1
  214   205   156 1
  215   206   155 1
  216   207   155 1
  217   208   155 1
  218   209   154 1
  219   210   154 1
  220   211   154 1
  221   212   141 1
  222   213   146 1
  223   214   145 1
  224   215   142 1
  225   216   142 1
  226   217   174 1
  227   218   173 1
  228   219   171 1
  229   220   170 1
  230   221   169 1
  231   222   140 1
  232   223   167 1
  233   224   166 1
  234   225   165 1
  235   226   163 1
  236   227   161 1
  237   228   139 1
  238   229   139 1
  239   230   153 1
  240   231   152 1
  241   232   150 1
  242   233   149 1
  243   234   148 1
  244   235   162 1
  245   65    153 1
  246   65    174 1
@<TRIPOS>SUBSTRUCTURE
      1 CLA               1 ****               0 ****  **** 
      2 LUT             138 ****               0 ****  **** 
