@<TRIPOS>MOLECULE
Cpptraj generated mol2 file.
  235   246     2     0     0
SMALL
USER_CHARGES


@<TRIPOS>ATOM
      1 CAA        79.0613   58.8903   33.8620 a2         1 CLA     -0.055900
      2 CAB        78.8150   61.7751   43.0527 c8         1 CLA     -0.148500
      3 CAC        71.8357   57.8735   42.1957 a2         1 CLA     -0.012600
      4 CAD        74.5570   56.6011   34.5425 ck         1 CLA      0.398800
      5 NA         77.8895   58.8711   37.2051 ns         1 CLA     -0.225500
      6 CBA        80.3227   58.7182   33.0401 a2         1 CLA     -0.135000
      7 CBB        79.9070   61.4560   43.8339 c0         1 CLA     -0.395200
      8 CBC        71.9178   56.3665   41.9416 a3         1 CLA     -0.037700
      9 CBD        76.1162   56.9896   34.3314 a1         1 CLA     -0.053900
     10 NB         77.7338   60.1966   39.9227 nm         1 CLA     -0.295700
     11 OBD        73.9764   55.9878   33.6687 o2         1 CLA     -0.494600
     12 CGA        80.7471   57.2731   32.6013 c4         1 CLA      0.827000
     13 CGD        77.0037   55.8472   34.0161 c4         1 CLA      0.655300
     14 ND         75.0170   58.1640   37.5758 nm         1 CLA     -0.291600
     15 CED        77.1335   53.3844   34.3778 a3         1 CLA      0.005400
     16 CHA        76.5255   57.6844   35.6271 cs         1 CLA     -0.123800
     17 CHB        79.7733   59.9306   38.4523 aa         1 CLA     -0.291900
     18 CHC        76.2178   60.6066   41.8508 aa         1 CLA     -0.090400
     19 CHD        73.2047   58.0323   39.1510 aa         1 CLA     -0.052000
     20 CMA        81.2581   57.9065   36.6107 a3         1 CLA     -0.230700
     21 CMB        81.0797   61.5397   40.7972 a3         1 CLA     -0.180800
     22 CMC        73.7871   59.9179   43.8447 a3         1 CLA     -0.134000
     23 CMD        71.6847   56.5346   36.7589 a3         1 CLA     -0.141100
     24 C1         81.7923   55.2783   33.2428 a2         1 CLA      0.023000
     25 C1A        77.7243   58.2641   36.0388 ac         1 CLA     -0.015100
     26 C1B        79.0178   60.4764   39.5681 cr         1 CLA      0.054700
     27 C1C        75.0540   59.8814   41.5513 cn         1 CLA     -0.005600
     28 C1D        73.7337   57.7249   37.8462 ap         1 CLA     -0.047300
     29 O1A        80.3529   56.7383   31.5959 o2         1 CLA     -0.610800
     30 O1D        77.9656   55.9468   33.2842 o2         1 CLA     -0.558200
     31 C2         82.3462   54.4467   34.3676 c8         1 CLA     -0.325100
     32 C2A        79.0370   58.1457   35.2366 a1         1 CLA      0.098600
     33 C2B        79.6253   61.1235   40.6743 cb         1 CLA      0.088500
     34 C2C        73.8836   59.5207   42.3874 cb         1 CLA      0.053700
     35 C2D        73.1468   57.0456   36.8040 cb         1 CLA      0.058900
     36 O2A        81.4995   56.6711   33.6102 o1         1 CLA     -0.437200
     37 O2D        76.6186   54.7353   34.7509 o1         1 CLA     -0.357600
     38 C3         83.3262   53.5050   34.2674 c5         1 CLA      0.031200
     39 C3A        80.1032   58.7866   36.0824 a1         1 CLA      0.166800
     40 C3B        78.6667   61.2581   41.6645 cb         1 CLA      0.035000
     41 C3C        73.0000   58.6920   41.6065 cb         1 CLA     -0.089900
     42 C3D        74.1801   57.0454   35.8332 cb         1 CLA     -0.035900
     43 C4         83.0627   52.0474   34.1370 a3         1 CLA     -0.053300
     44 C4A        79.2027   59.2736   37.3093 ac         1 CLA      0.001800
     45 C4B        77.4661   60.6301   41.1257 cn         1 CLA     -0.020900
     46 C4C        73.6714   58.6489   40.3078 cr         1 CLA     -0.044400
     47 C4D        75.3181   57.6803   36.3753 c6         1 CLA     -0.046000
     48 C5         84.8261   53.9355   34.2927 a2         1 CLA     -0.070400
     49 C6         85.1412   55.3313   34.6933 a2         1 CLA      0.043900
     50 C7         84.9813   55.5439   36.2153 a2         1 CLA     -0.150000
     51 C8         85.2379   56.9466   36.7861 a1         1 CLA      0.064200
     52 C9         86.5760   57.5775   36.2999 a3         1 CLA     -0.259300
     53 C10        85.1565   56.8184   38.3615 a2         1 CLA     -0.071900
     54 C11        85.0404   58.1614   39.1865 a2         1 CLA      0.014500
     55 C12        84.7237   57.9548   40.6945 a2         1 CLA     -0.112100
     56 C13        84.9439   59.1012   41.6496 a1         1 CLA      0.089200
     57 C14        86.3999   59.6532   41.6727 a3         1 CLA     -0.239100
     58 C15        84.5759   58.7444   43.1046 a2         1 CLA     -0.102200
     59 C16        83.1933   58.1314   43.3286 a2         1 CLA      0.023900
     60 C17        82.9314   57.7907   44.7596 a2         1 CLA     -0.105700
     61 C18        83.3572   56.3422   45.2743 a1         1 CLA      0.206800
     62 C19        84.8524   56.1303   45.2768 a3         1 CLA     -0.280100
     63 C20        82.9723   56.3377   46.7608 a3         1 CLA     -0.280100
     64 NC         74.9171   59.2076   40.3445 nx         1 CLA     -0.309200
     65 MG         76.3061   59.1809   38.7661 mg         1 CLA      0.895000
     66 HMD3       71.2709   56.4729   37.7309 dc         1 CLA      0.064300
     67 HMD2       71.1343   57.3047   36.2632 dc         1 CLA      0.064300
     68 HMD1       71.5250   55.6465   36.1499 dc         1 CLA      0.064300
     69 HMC3       73.1470   60.7799   44.0226 dc         1 CLA      0.052100
     70 HMC2       73.6343   59.0561   44.5255 dc         1 CLA      0.052100
     71 HMC1       74.7820   60.1797   44.1022 dc         1 CLA      0.052100
     72 HMB3       81.5870   60.5743   40.8066 dc         1 CLA      0.063600
     73 HMB2       81.2560   62.1710   39.9353 dc         1 CLA      0.063600
     74 HMB1       81.2599   62.0445   41.7166 dc         1 CLA      0.063600
     75 HMA3       81.8132   58.6671   37.1906 dc         1 CLA      0.058300
     76 HMA2       80.8978   57.2004   37.4646 dc         1 CLA      0.058300
     77 HMA1       81.8582   57.4342   35.9016 dc         1 CLA      0.058300
     78 HED3       78.1851   53.4566   34.1271 dc         1 CLA      0.079300
     79 HED2       77.0228   52.7917   35.2808 dc         1 CLA      0.079300
     80 HED1       76.5575   53.1198   33.5111 dc         1 CLA      0.079300
     81 HBC3       71.4183   56.0097   40.9556 dc         1 CLA      0.016300
     82 HBC2       72.9441   56.2085   41.9559 dc         1 CLA      0.016300
     83 HBC1       71.4987   55.9058   42.7990 dc         1 CLA      0.016300
     84 HBB2       79.9622   61.8676   44.8559 da         1 CLA      0.183000
     85 HBB1       80.6092   60.7262   43.4933 da         1 CLA      0.183000
     86 HBA2       80.2170   59.2221   32.0543 dc         1 CLA      0.029400
     87 HBA1       81.1116   59.1637   33.5054 dc         1 CLA      0.029400
     88 HAC2       71.7970   58.0664   43.2940 dc         1 CLA      0.029300
     89 HAC1       70.9276   58.2038   41.8053 dc         1 CLA      0.029300
     90 HAA2       78.3843   58.4331   33.2144 dc         1 CLA      0.028700
     91 HAA1       78.7989   59.9907   33.9900 dc         1 CLA      0.028700
     92 H203       82.9661   55.3792   47.1650 dc         1 CLA      0.065600
     93 H202       83.6726   57.0040   47.3335 dc         1 CLA      0.065600
     94 H201       82.0180   56.8219   46.8839 dc         1 CLA      0.065600
     95 H193       85.0942   55.2213   45.9147 dc         1 CLA      0.065600
     96 H192       84.9377   55.9748   44.2015 dc         1 CLA      0.065600
     97 H191       85.4574   56.8975   45.6433 dc         1 CLA      0.065600
     98 H172       83.4373   58.5094   45.4020 dc         1 CLA      0.027600
     99 H171       81.8288   57.9558   44.8465 dc         1 CLA      0.027600
    100 H162       82.4867   58.9766   43.0819 dc         1 CLA      0.002900
    101 H161       82.9614   57.2547   42.6540 dc         1 CLA      0.002900
    102 H152       85.3515   58.0473   43.4341 dc         1 CLA      0.029100
    103 H151       84.6728   59.6537   43.6625 dc         1 CLA      0.029100
    104 H143       86.7971   59.7357   40.6193 dc         1 CLA      0.063600
    105 H142       86.5585   60.6230   42.0954 dc         1 CLA      0.063600
    106 H141       87.0657   58.9685   42.1556 dc         1 CLA      0.063600
    107 H122       83.6844   57.7440   40.7061 dc         1 CLA      0.032500
    108 H121       85.2967   57.0906   41.1242 dc         1 CLA      0.032500
    109 H112       85.8471   58.9159   38.9868 dc         1 CLA      0.006600
    110 H111       84.2373   58.6986   38.7086 dc         1 CLA      0.006600
    111 H102       84.2564   56.1862   38.4482 dc         1 CLA      0.024100
    112 H101       85.9200   56.0941   38.8144 dc         1 CLA      0.024100
    113 HHD        72.1064   57.7118   39.2033 da         1 CLA      0.174300
    114 HHC        76.3318   61.0353   42.8485 da         1 CLA      0.136800
    115 HHB        80.8253   59.9504   38.5860 da         1 CLA      0.138300
    116 HBD        76.0708   57.6018   33.3947 dc         1 CLA      0.107700
    117 HAB        78.1491   62.4527   43.5513 da         1 CLA      0.155200
    118 H93        86.8170   58.5269   36.7325 dc         1 CLA      0.069500
    119 H92        87.4433   56.8483   36.5550 dc         1 CLA      0.069500
    120 H91        86.6619   57.6590   35.1961 dc         1 CLA      0.069500
    121 H8         84.4438   57.6060   36.4304 dc         1 CLA      0.029300
    122 H72        83.9746   55.1948   36.4373 dc         1 CLA      0.044400
    123 H71        85.5949   54.9183   36.8045 dc         1 CLA      0.044400
    124 H62        86.1809   55.4495   34.4430 dc         1 CLA      0.015600
    125 H61        84.5807   56.0000   34.1151 dc         1 CLA      0.015600
    126 H52        85.3298   53.1334   34.8193 dc         1 CLA      0.033200
    127 H51        85.2081   53.9434   33.2375 dc         1 CLA      0.033200
    128 H43        83.6314   51.4995   33.4010 dc         1 CLA      0.037000
    129 H42        83.4161   51.5001   34.9852 dc         1 CLA      0.037000
    130 H41        82.0556   51.7838   33.8693 dc         1 CLA      0.037000
    131 H3A        80.5485   59.7673   35.7124 dc         1 CLA      0.041100
    132 H2A        79.2897   57.0355   35.1102 dc         1 CLA      0.083100
    133 H2         81.8837   54.7035   35.3101 da         1 CLA      0.180900
    134 H18        82.8748   55.5293   44.7229 dc         1 CLA     -0.003900
    135 H13        84.2002   59.8943   41.2735 dc         1 CLA      0.019700
    136 H12        80.8820   54.7557   32.8459 dc         1 CLA      0.120400
    137 H11        82.4825   55.4115   32.3910 dc         1 CLA      0.120400
    138 C1         68.8267   60.8466   49.6884 Z1         2 LUT      0.509236
    139 C2         68.5289   61.6059   50.9565 Z2         2 LUT     -0.434695
    140 C3         67.1497   62.0940   51.0368 Z3         2 LUT      0.437453
    141 O3         66.9896   62.7287   52.3410 S1         2 LUT     -0.547129
    142 C4         66.9540   63.1231   49.9655 Z4         2 LUT     -0.468603
    143 C5         67.4877   62.6927   48.5367 Z5         2 LUT      0.279246
    144 C6         68.2877   61.6187   48.4620 Z6         2 LUT     -0.305473
    145 C7         69.1176   61.5146   47.2523 Z7         2 LUT      0.069402
    146 C8         70.0035   62.2491   46.5935 Z8         2 LUT     -0.191631
    147 C9         70.8171   62.0710   45.3766 Z9         2 LUT      0.196698
    148 C10        71.7126   63.0796   44.9663 Y1         2 LUT     -0.208611
    149 C11        72.3820   63.1512   43.6751 Y2         2 LUT      0.030784
    150 C12        73.5888   63.7659   43.3752 Y3         2 LUT     -0.220316
    151 C13        74.4152   63.6922   42.1899 Y4         2 LUT      0.215937
    152 C14        75.7268   64.0588   42.2795 Y5         2 LUT     -0.185793
    153 C15        76.7659   64.0913   41.2369 Y6         2 LUT     -0.057835
    154 C16        68.0083   59.5116   49.5879 Y7         2 LUT     -0.405615
    155 C17        70.3190   60.4284   49.6089 Y7         2 LUT     -0.405615
    156 C18        67.3183   63.8582   47.5071 Y9         2 LUT     -0.369639
    157 C19        70.3879   60.9327   44.5542 W1         2 LUT     -0.333362
    158 C20        73.7901   63.1301   40.9559 W2         2 LUT     -0.323439
    159 C21        87.6711   66.0092   34.2768 Z1         2 LUT      0.406104
    160 C22        88.2589   65.3514   33.0798 Z2         2 LUT     -0.404965
    161 C23        88.4194   66.2570   31.8185 Z3         2 LUT      0.391255
    162 O23        88.5694   65.3787   30.6419 S1         2 LUT     -0.528210
    163 C24        87.2039   67.2247   31.6916 W6         2 LUT     -0.258361
    164 C25        86.1992   67.3680   32.6265 Z5         2 LUT      0.133546
    165 C26        86.2489   66.5327   33.9000 W8         2 LUT     -0.147008
    166 C27        85.4349   67.0128   35.0888 Z7         2 LUT      0.023843
    167 C28        84.5742   66.2807   35.8784 Z8         2 LUT     -0.216987
    168 C29        83.7831   66.5307   37.0675 Z9         2 LUT      0.206524
    169 C30        82.8184   65.6338   37.4651 Y1         2 LUT     -0.215556
    170 C31        81.8792   65.8662   38.5897 Y2         2 LUT      0.025142
    171 C32        80.8537   65.0677   38.9740 Y3         2 LUT     -0.212209
    172 C33        80.0627   65.4559   40.1546 Y4         2 LUT      0.240937
    173 C34        78.9440   64.6817   40.1811 Y5         2 LUT     -0.218862
    174 C35        78.0095   64.6641   41.2993 Y6         2 LUT     -0.023547
    175 C36        88.6599   67.2324   34.7013 Y7         2 LUT     -0.393485
    176 C37        87.6899   65.0880   35.4977 Y7         2 LUT     -0.393485
    177 C38        85.0195   68.3232   32.3628 Y9         2 LUT     -0.387526
    178 C39        84.0352   67.9479   37.5534 W1         2 LUT     -0.322618
    179 C40        80.3457   66.6971   40.9706 W2         2 LUT     -0.358472
    180 H403       80.2494   67.5463   40.4204 R7         2 LUT      0.097720
    181 H402       79.6283   66.7777   41.7705 R7         2 LUT      0.097720
    182 H401       81.3489   66.7399   41.3672 R7         2 LUT      0.097720
    183 H393       83.3999   68.7865   37.2055 R4         2 LUT      0.082505
    184 H392       83.8736   68.0514   38.6153 R4         2 LUT      0.082505
    185 H391       85.0772   68.0934   37.5993 R4         2 LUT      0.082505
    186 H383       84.2219   68.3045   33.1876 R1         2 LUT      0.104030
    187 H382       85.3214   69.3732   32.3470 R1         2 LUT      0.104030
    188 H381       84.3916   68.1345   31.5078 R1         2 LUT      0.104030
    189 H373       87.0253   64.2103   35.4002 T4         2 LUT      0.089537
    190 H372       88.7449   64.8110   35.6384 T4         2 LUT      0.089537
    191 H371       87.4234   65.5189   36.4439 T4         2 LUT      0.089537
    192 H363       88.4282   67.5256   35.7495 T4         2 LUT      0.089537
    193 H362       89.7190   66.9054   34.6470 T4         2 LUT      0.089537
    194 H361       88.4730   68.0406   34.0025 T4         2 LUT      0.089537
    195 H222       89.2066   64.8391   33.4338 U2         2 LUT      0.127376
    196 H221       87.6506   64.5153   32.8394 U2         2 LUT      0.127376
    197 H203       73.7159   62.0431   40.9826 R7         2 LUT      0.087068
    198 H202       72.8435   63.6149   40.7475 R7         2 LUT      0.087068
    199 H201       74.3620   63.3235   40.0162 R7         2 LUT      0.087068
    200 H193       69.5054   60.4204   44.7763 R4         2 LUT      0.089716
    201 H192       70.3820   61.1688   43.4769 R4         2 LUT      0.089716
    202 H191       71.0797   60.1538   44.6989 R4         2 LUT      0.089716
    203 H183       67.9775   64.7583   47.6777 R1         2 LUT      0.094572
    204 H182       67.4253   63.5554   46.4982 R1         2 LUT      0.094572
    205 H181       66.2921   64.2570   47.6501 R1         2 LUT      0.094572
    206 H173       70.4244   59.6096   50.2947 T4         2 LUT      0.093752
    207 H172       70.6347   59.9069   48.7107 T4         2 LUT      0.093752
    208 H171       71.0304   61.2375   49.8667 T4         2 LUT      0.093752
    209 H163       68.1623   58.8308   50.4506 T4         2 LUT      0.093752
    210 H162       66.9791   59.6359   49.4195 T4         2 LUT      0.093752
    211 H161       68.3777   58.9886   48.6642 T4         2 LUT      0.093752
    212 HO3        66.4195   62.1288   52.8446 Q1         2 LUT      0.300121
    213 H8         70.1255   63.1999   47.0940 U7         2 LUT      0.080784
    214 H7         69.0195   60.4766   46.8654 U6         2 LUT      0.042190
    215 H42        65.8587   63.2516   49.9941 U5         2 LUT      0.145166
    216 H41        67.3440   64.0736   50.2298 U5         2 LUT      0.145166
    217 H35        78.0599   65.2007   42.1797 T3         2 LUT      0.077919
    218 H34        78.6868   63.8669   39.5250 T2         2 LUT      0.073626
    219 H32        80.6216   64.1692   38.4031 T1         2 LUT      0.092510
    220 H31        82.0262   66.8174   39.1111 U9         2 LUT      0.070048
    221 H30        82.6264   64.8410   36.8401 U8         2 LUT      0.085442
    222 H3         66.4246   61.2722   50.8585 U3         2 LUT     -0.031596
    223 H28        84.2415   65.3458   35.3888 U7         2 LUT      0.084728
    224 H27        85.7728   67.9587   35.4255 U6         2 LUT      0.087291
    225 H26        85.7006   65.6543   33.5606 Q6         2 LUT      0.075325
    226 H24        87.1004   67.7854   30.7472 Q5         2 LUT      0.094482
    227 H23        89.3038   66.9258   31.7885 U3         2 LUT     -0.024869
    228 H22        68.7303   60.9992   51.8814 U2         2 LUT      0.127376
    229 H21        69.2318   62.4098   51.0153 U2         2 LUT      0.127376
    230 H15        76.5636   63.5809   40.3301 T3         2 LUT      0.093200
    231 H14        76.1416   64.3274   43.2545 T2         2 LUT      0.068865
    232 H12        73.9945   64.2255   44.1940 T1         2 LUT      0.095507
    233 H11        72.0014   62.5418   42.8831 U9         2 LUT      0.068930
    234 H10        71.9603   63.8832   45.6447 U8         2 LUT      0.083911
    235 H1         88.5965   65.8581   29.8376 Q1         2 LUT      0.297311
@<TRIPOS>BOND
    1     6     1 1
    2     7     2 1
    3     8     3 1
    4     9     4 1
    5    11     4 1
    6    12     6 1
    7    13     9 1
    8    16     9 1
    9    25     5 1
   10    25    16 1
   11    26    10 1
   12    26    17 1
   13    27    18 1
   14    28    14 1
   15    28    19 1
   16    29    12 1
   17    30    13 1
   18    31    24 1
   19    32     1 1
   20    32    25 1
   21    33    21 1
   22    33    26 1
   23    34    22 1
   24    34    27 1
   25    35    23 1
   26    35    28 1
   27    36    12 1
   28    36    24 1
   29    37    13 1
   30    37    15 1
   31    38    31 1
   32    39    20 1
   33    39    32 1
   34    40     2 1
   35    40    33 1
   36    41     3 1
   37    41    34 1
   38    42     4 1
   39    42    35 1
   40    43    38 1
   41    44     5 1
   42    44    17 1
   43    44    39 1
   44    45    10 1
   45    45    18 1
   46    45    40 1
   47    46    19 1
   48    46    41 1
   49    47    14 1
   50    47    16 1
   51    47    42 1
   52    48    38 1
   53    49    48 1
   54    50    49 1
   55    51    50 1
   56    52    51 1
   57    53    51 1
   58    54    53 1
   59    55    54 1
   60    56    55 1
   61    57    56 1
   62    58    56 1
   63    59    58 1
   64    60    59 1
   65    61    60 1
   66    62    61 1
   67    63    61 1
   68    64    27 1
   69    64    46 1
   70    65     5 1
   71    65    10 1
   72    65    64 1
   73    65    14 1
   74    66    23 1
   75    67    23 1
   76    68    23 1
   77    69    22 1
   78    70    22 1
   79    71    22 1
   80    72    21 1
   81    73    21 1
   82    74    21 1
   83    75    20 1
   84    76    20 1
   85    77    20 1
   86    78    15 1
   87    79    15 1
   88    80    15 1
   89    81     8 1
   90    82     8 1
   91    83     8 1
   92    84     7 1
   93    85     7 1
   94    86     6 1
   95    87     6 1
   96    88     3 1
   97    89     3 1
   98    90     1 1
   99    91     1 1
  100    92    63 1
  101    93    63 1
  102    94    63 1
  103    95    62 1
  104    96    62 1
  105    97    62 1
  106    98    60 1
  107    99    60 1
  108   100    59 1
  109   101    59 1
  110   102    58 1
  111   103    58 1
  112   104    57 1
  113   105    57 1
  114   106    57 1
  115   107    55 1
  116   108    55 1
  117   109    54 1
  118   110    54 1
  119   111    53 1
  120   112    53 1
  121   113    19 1
  122   114    18 1
  123   115    17 1
  124   116     9 1
  125   117     2 1
  126   118    52 1
  127   119    52 1
  128   120    52 1
  129   121    51 1
  130   122    50 1
  131   123    50 1
  132   124    49 1
  133   125    49 1
  134   126    48 1
  135   127    48 1
  136   128    43 1
  137   129    43 1
  138   130    43 1
  139   131    39 1
  140   132    32 1
  141   133    31 1
  142   134    61 1
  143   135    56 1
  144   136    24 1
  145   137    24 1
  146   139   138 1
  147   140   139 1
  148   141   140 1
  149   142   140 1
  150   143   142 1
  151   144   138 1
  152   144   143 1
  153   145   144 1
  154   146   145 1
  155   147   146 1
  156   148   147 1
  157   149   148 1
  158   150   149 1
  159   151   150 1
  160   152   151 1
  161   153   152 1
  162   154   138 1
  163   155   138 1
  164   156   143 1
  165   157   147 1
  166   158   151 1
  167   160   159 1
  168   161   160 1
  169   162   161 1
  170   163   161 1
  171   164   163 1
  172   165   159 1
  173   165   164 1
  174   166   165 1
  175   167   166 1
  176   168   167 1
  177   169   168 1
  178   170   169 1
  179   171   170 1
  180   172   171 1
  181   173   172 1
  182   174   153 1
  183   174   173 1
  184   175   159 1
  185   176   159 1
  186   177   164 1
  187   178   168 1
  188   179   172 1
  189   180   179 1
  190   181   179 1
  191   182   179 1
  192   183   178 1
  193   184   178 1
  194   185   178 1
  195   186   177 1
  196   187   177 1
  197   188   177 1
  198   189   176 1
  199   190   176 1
  200   191   176 1
  201   192   175 1
  202   193   175 1
  203   194   175 1
  204   195   160 1
  205   196   160 1
  206   197   158 1
  207   198   158 1
  208   199   158 1
  209   200   157 1
  210   201   157 1
  211   202   157 1
  212   203   156 1
  213   204   156 1
  214   205   156 1
  215   206   155 1
  216   207   155 1
  217   208   155 1
  218   209   154 1
  219   210   154 1
  220   211   154 1
  221   212   141 1
  222   213   146 1
  223   214   145 1
  224   215   142 1
  225   216   142 1
  226   217   174 1
  227   218   173 1
  228   219   171 1
  229   220   170 1
  230   221   169 1
  231   222   140 1
  232   223   167 1
  233   224   166 1
  234   225   165 1
  235   226   163 1
  236   227   161 1
  237   228   139 1
  238   229   139 1
  239   230   153 1
  240   231   152 1
  241   232   150 1
  242   233   149 1
  243   234   148 1
  244   235   162 1
  245   65    153 1
  246   65    174 1
@<TRIPOS>SUBSTRUCTURE
      1 CLA               1 ****               0 ****  **** 
      2 LUT             138 ****               0 ****  **** 
