@<TRIPOS>MOLECULE
Cpptraj generated mol2 file.
  235   246     2     0     0
SMALL
USER_CHARGES


@<TRIPOS>ATOM
      1 CAA        77.8543   56.7090   33.9672 a2         1 CLA     -0.055900
      2 CAB        78.8257   61.5207   42.4367 c8         1 CLA     -0.148500
      3 CAC        71.5195   57.9169   42.8452 a2         1 CLA     -0.012600
      4 CAD        73.5188   54.6967   35.6335 ck         1 CLA      0.398800
      5 NA         76.9608   57.8819   37.1710 ns         1 CLA     -0.225500
      6 CBA        79.0219   56.0933   33.0424 a2         1 CLA     -0.135000
      7 CBB        80.0072   61.4599   43.1297 c0         1 CLA     -0.395200
      8 CBC        71.4545   56.4833   43.2470 a3         1 CLA     -0.037700
      9 CBD        75.0506   55.0375   35.2684 a1         1 CLA     -0.053900
     10 NB         77.2997   59.4141   39.7376 nm         1 CLA     -0.295700
     11 OBD        72.8766   53.8750   34.9715 o2         1 CLA     -0.494600
     12 CGA        79.1156   54.5711   33.2117 c4         1 CLA      0.827000
     13 CGD        75.9040   53.7906   35.2624 c4         1 CLA      0.655300
     14 ND         74.1133   57.1447   38.0183 nm         1 CLA     -0.291600
     15 CED        76.1904   51.7703   36.4455 a3         1 CLA      0.005400
     16 CHA        75.5058   56.1588   36.2401 cs         1 CLA     -0.123800
     17 CHB        79.0458   58.8078   38.1631 aa         1 CLA     -0.291900
     18 CHC        76.0428   59.9852   41.7288 aa         1 CLA     -0.090400
     19 CHD        72.3694   57.4254   39.6974 aa         1 CLA     -0.052000
     20 CMA        80.2861   56.3006   36.6559 a3         1 CLA     -0.230700
     21 CMB        80.7023   61.1288   39.7629 a3         1 CLA     -0.180800
     22 CMC        73.8270   59.7888   44.0209 a3         1 CLA     -0.134000
     23 CMD        70.8219   55.3188   37.6750 a3         1 CLA     -0.141100
     24 C1         79.8517   52.7676   34.6540 a2         1 CLA      0.023000
     25 C1A        76.7110   56.8874   36.2862 ac         1 CLA     -0.015100
     26 C1B        78.5589   59.5601   39.2580 cr         1 CLA      0.054700
     27 C1C        74.8678   59.2916   41.5929 cn         1 CLA     -0.005600
     28 C1D        72.7883   56.8831   38.4595 ap         1 CLA     -0.047300
     29 O1A        78.7248   53.7821   32.3945 o2         1 CLA     -0.610800
     30 O1D        76.6077   53.3845   34.3460 o2         1 CLA     -0.558200
     31 C2         80.7004   52.5149   35.9296 c8         1 CLA     -0.325100
     32 C2A        77.9701   56.5071   35.4670 a1         1 CLA      0.098600
     33 C2B        79.3276   60.4598   40.1430 cb         1 CLA      0.088500
     34 C2C        73.8413   59.0959   42.6596 cb         1 CLA      0.053700
     35 C2D        72.2070   55.8530   37.6460 cb         1 CLA      0.058900
     36 O2A        79.7304   54.1935   34.3763 o1         1 CLA     -0.437200
     37 O2D        75.7091   53.1740   36.4487 o1         1 CLA     -0.357600
     38 C3         81.4356   51.4393   36.1291 c5         1 CLA      0.031200
     39 C3A        79.1128   57.2171   36.2053 a1         1 CLA      0.166800
     40 C3B        78.5209   60.7436   41.2243 cb         1 CLA      0.035000
     41 C3C        72.8171   58.3542   42.0959 cb         1 CLA     -0.089900
     42 C3D        73.1911   55.5321   36.7126 cb         1 CLA     -0.035900
     43 C4         80.8953   50.1726   36.7997 a3         1 CLA     -0.053300
     44 C4A        78.3216   58.0496   37.2271 ac         1 CLA      0.001800
     45 C4B        77.2091   60.0827   40.9434 cn         1 CLA     -0.020900
     46 C4C        73.1971   58.1066   40.6969 cr         1 CLA     -0.044400
     47 C4D        74.4052   56.3263   37.0599 c6         1 CLA     -0.046000
     48 C5         82.8856   51.5037   35.6165 a2         1 CLA     -0.070400
     49 C6         83.6441   52.8311   35.8936 a2         1 CLA      0.043900
     50 C7         83.8846   52.9451   37.3647 a2         1 CLA     -0.150000
     51 C8         84.5617   54.2991   37.6902 a1         1 CLA      0.064200
     52 C9         86.0853   54.4590   37.1951 a3         1 CLA     -0.259300
     53 C10        84.5585   54.8038   39.1574 a2         1 CLA     -0.071900
     54 C11        83.1923   55.3330   39.5737 a2         1 CLA      0.014500
     55 C12        83.2490   56.1353   40.8712 a2         1 CLA     -0.112100
     56 C13        81.9682   56.3508   41.7928 a1         1 CLA      0.089200
     57 C14        81.0216   57.2513   40.9677 a3         1 CLA     -0.239100
     58 C15        82.1054   56.7743   43.2818 a2         1 CLA     -0.102200
     59 C16        82.7069   58.1314   43.6396 a2         1 CLA      0.023900
     60 C17        82.9367   58.1464   45.1835 a2         1 CLA     -0.105700
     61 C18        83.8738   59.2683   45.7610 a1         1 CLA      0.206800
     62 C19        83.3233   60.6383   45.6058 a3         1 CLA     -0.280100
     63 C20        84.1071   58.9644   47.3235 a3         1 CLA     -0.280100
     64 NC         74.5022   58.5449   40.5048 nx         1 CLA     -0.309200
     65 MG         75.6526   58.4072   38.7619 mg         1 CLA      0.895000
     66 HMD3       70.7492   54.5596   36.9228 dc         1 CLA      0.064300
     67 HMD2       70.6786   54.7925   38.6159 dc         1 CLA      0.064300
     68 HMD1       70.1284   56.1432   37.6438 dc         1 CLA      0.064300
     69 HMC3       74.7381   60.3621   44.3131 dc         1 CLA      0.052100
     70 HMC2       72.9462   60.4023   44.0552 dc         1 CLA      0.052100
     71 HMC1       73.7872   59.1380   44.8812 dc         1 CLA      0.052100
     72 HMB3       81.4393   60.4220   40.0606 dc         1 CLA      0.063600
     73 HMB2       80.7760   61.4920   38.7713 dc         1 CLA      0.063600
     74 HMB1       80.8702   62.0158   40.3878 dc         1 CLA      0.063600
     75 HMA3       80.7273   56.1532   35.6749 dc         1 CLA      0.058300
     76 HMA2       80.8626   56.9028   37.3309 dc         1 CLA      0.058300
     77 HMA1       80.0156   55.3974   37.1555 dc         1 CLA      0.058300
     78 HED3       75.8108   51.1207   35.6262 dc         1 CLA      0.079300
     79 HED2       77.2505   51.7902   36.4152 dc         1 CLA      0.079300
     80 HED1       75.9571   51.2445   37.3644 dc         1 CLA      0.079300
     81 HBC3       72.1372   56.3453   44.0381 dc         1 CLA      0.016300
     82 HBC2       70.4723   56.1850   43.6273 dc         1 CLA      0.016300
     83 HBC1       71.8376   55.8906   42.4344 dc         1 CLA      0.016300
     84 HBB2       80.2873   61.9855   44.0015 da         1 CLA      0.183000
     85 HBB1       80.7239   60.7947   42.6579 da         1 CLA      0.183000
     86 HBA2       78.8561   56.3194   31.9860 dc         1 CLA      0.029400
     87 HBA1       79.9556   56.5976   33.3155 dc         1 CLA      0.029400
     88 HAC2       71.3537   58.4764   43.7769 dc         1 CLA      0.029300
     89 HAC1       70.7451   58.0917   42.1596 dc         1 CLA      0.029300
     90 HAA2       76.8509   56.4949   33.7017 dc         1 CLA      0.028700
     91 HAA1       77.7913   57.8103   33.8775 dc         1 CLA      0.028700
     92 H203       84.4610   57.9416   47.3752 dc         1 CLA      0.065600
     93 H202       84.8391   59.6936   47.7878 dc         1 CLA      0.065600
     94 H201       83.1033   58.9538   47.8689 dc         1 CLA      0.065600
     95 H193       82.8451   60.8054   44.6383 dc         1 CLA      0.065600
     96 H192       82.5679   60.8639   46.3729 dc         1 CLA      0.065600
     97 H191       84.1284   61.3795   45.5955 dc         1 CLA      0.065600
     98 H172       81.9133   58.2009   45.6488 dc         1 CLA      0.027600
     99 H171       83.3184   57.1804   45.4699 dc         1 CLA      0.027600
    100 H162       83.6682   58.2180   43.0976 dc         1 CLA      0.002900
    101 H161       82.0332   58.9386   43.3204 dc         1 CLA      0.002900
    102 H152       81.1712   56.6690   43.9073 dc         1 CLA      0.029100
    103 H151       82.7768   55.9321   43.5703 dc         1 CLA      0.029100
    104 H143       80.9116   56.8241   39.9850 dc         1 CLA      0.063600
    105 H142       80.0654   57.2418   41.4877 dc         1 CLA      0.063600
    106 H141       81.4351   58.3349   40.9415 dc         1 CLA      0.063600
    107 H122       84.0699   55.6818   41.4675 dc         1 CLA      0.032500
    108 H121       83.7060   57.1265   40.7192 dc         1 CLA      0.032500
    109 H112       82.9426   56.0067   38.7291 dc         1 CLA      0.006600
    110 H111       82.4200   54.4990   39.6594 dc         1 CLA      0.006600
    111 H102       84.9677   54.0864   39.8500 dc         1 CLA      0.024100
    112 H101       85.2423   55.6827   39.2160 dc         1 CLA      0.024100
    113 HHD        71.4282   57.0496   40.0372 da         1 CLA      0.174300
    114 HHC        76.2613   60.4707   42.7128 da         1 CLA      0.136800
    115 HHB        80.1710   58.9111   38.0311 da         1 CLA      0.138300
    116 HBD        75.0708   55.3394   34.2455 dc         1 CLA      0.107700
    117 HAB        78.0496   62.1824   42.7642 da         1 CLA      0.155200
    118 H93        86.1504   54.2094   36.1849 dc         1 CLA      0.069500
    119 H92        86.4728   55.4608   37.3340 dc         1 CLA      0.069500
    120 H91        86.7476   53.7403   37.7137 dc         1 CLA      0.069500
    121 H8         83.9331   55.0331   37.2382 dc         1 CLA      0.029300
    122 H72        83.0048   52.9931   37.8659 dc         1 CLA      0.044400
    123 H71        84.4778   52.1196   37.6880 dc         1 CLA      0.044400
    124 H62        84.5958   52.9511   35.4676 dc         1 CLA      0.015600
    125 H61        83.0774   53.7180   35.5877 dc         1 CLA      0.015600
    126 H52        83.4513   50.7406   36.1667 dc         1 CLA      0.033200
    127 H51        82.8768   51.2459   34.5478 dc         1 CLA      0.033200
    128 H43        79.8237   50.0925   36.8351 dc         1 CLA      0.037000
    129 H42        81.2438   49.2005   36.3533 dc         1 CLA      0.037000
    130 H41        81.2773   50.0321   37.8019 dc         1 CLA      0.037000
    131 H3A        79.5988   57.8449   35.4790 dc         1 CLA      0.041100
    132 H2A        77.9727   55.4644   35.7399 dc         1 CLA      0.083100
    133 H2         80.7665   53.3329   36.7222 da         1 CLA      0.180900
    134 H18        84.8127   59.2261   45.1958 dc         1 CLA     -0.003900
    135 H13        81.5451   55.3022   41.8017 dc         1 CLA      0.019700
    136 H12        78.8821   52.3089   34.7886 dc         1 CLA      0.120400
    137 H11        80.3994   52.3806   33.7951 dc         1 CLA      0.120400
    138 C1         68.0617   61.3777   48.8384 Z1         2 LUT      0.509236
    139 C2         66.7839   60.9147   49.5602 Z2         2 LUT     -0.434695
    140 C3         65.8555   62.0075   50.1553 Z3         2 LUT      0.437453
    141 O3         66.2102   62.2724   51.4898 S1         2 LUT     -0.547129
    142 C4         65.9677   63.3629   49.3689 Z4         2 LUT     -0.468603
    143 C5         66.5279   63.2242   47.9677 Z5         2 LUT      0.279246
    144 C6         67.4984   62.3473   47.7469 Z6         2 LUT     -0.305473
    145 C7         67.8274   61.9380   46.3934 Z7         2 LUT      0.069402
    146 C8         68.9995   62.1580   45.7449 Z8         2 LUT     -0.191631
    147 C9         69.4997   61.6309   44.4810 Z9         2 LUT      0.196698
    148 C10        70.5274   62.2693   43.8699 Y1         2 LUT     -0.208611
    149 C11        71.1944   61.9683   42.6716 Y2         2 LUT      0.030784
    150 C12        72.3743   62.5549   42.3289 Y3         2 LUT     -0.220316
    151 C13        73.1980   62.3086   41.1866 Y4         2 LUT      0.215937
    152 C14        74.4140   62.9148   41.1437 Y5         2 LUT     -0.185793
    153 C15        75.3942   62.9123   40.2100 Y6         2 LUT     -0.057835
    154 C16        68.6207   60.0149   48.2530 Y7         2 LUT     -0.405615
    155 C17        68.9598   61.9623   49.9016 Y7         2 LUT     -0.405615
    156 C18        65.6626   63.9996   47.0265 Y9         2 LUT     -0.369639
    157 C19        68.7587   60.3906   43.9186 W1         2 LUT     -0.333362
    158 C20        72.6672   61.4569   40.0982 W2         2 LUT     -0.323439
    159 C21        86.7534   63.8696   34.8332 Z1         2 LUT      0.406104
    160 C22        87.8893   63.5470   33.9167 Z2         2 LUT     -0.404965
    161 C23        88.2843   64.6283   32.8738 Z3         2 LUT      0.391255
    162 O23        89.2851   64.0013   32.0348 S1         2 LUT     -0.528210
    163 C24        86.9774   65.2529   32.2561 W6         2 LUT     -0.258361
    164 C25        85.7102   65.0716   32.7762 Z5         2 LUT      0.133546
    165 C26        85.4265   64.1701   34.0020 W8         2 LUT     -0.147008
    166 C27        84.3155   64.7948   34.8174 Z7         2 LUT      0.023843
    167 C28        83.4768   64.2077   35.6924 Z8         2 LUT     -0.216987
    168 C29        82.7345   64.9905   36.7389 Z9         2 LUT      0.206524
    169 C30        81.6865   64.3208   37.3751 Y1         2 LUT     -0.215556
    170 C31        80.8476   64.7634   38.3615 Y2         2 LUT      0.025142
    171 C32        79.7423   64.0063   38.6786 Y3         2 LUT     -0.212209
    172 C33        78.7639   64.2668   39.6623 Y4         2 LUT      0.240937
    173 C34        77.6077   63.5423   39.5584 Y5         2 LUT     -0.218862
    174 C35        76.5160   63.6382   40.4602 Y6         2 LUT     -0.023547
    175 C36        87.1913   65.0857   35.7107 Y7         2 LUT     -0.393485
    176 C37        86.4676   62.8327   35.8640 Y7         2 LUT     -0.393485
    177 C38        84.5740   65.8060   32.0723 Y9         2 LUT     -0.387526
    178 C39        83.2479   66.3850   37.1063 W1         2 LUT     -0.322618
    179 C40        79.0604   65.3969   40.6313 W2         2 LUT     -0.358472
    180 H403       80.0660   65.3782   40.9818 R7         2 LUT      0.097720
    181 H402       79.0499   66.2751   40.0848 R7         2 LUT      0.097720
    182 H401       78.3871   65.4641   41.5533 R7         2 LUT      0.097720
    183 H393       83.1502   66.5397   38.1819 R4         2 LUT      0.082505
    184 H392       84.3046   66.4622   36.9724 R4         2 LUT      0.082505
    185 H391       82.8738   67.2966   36.5886 R4         2 LUT      0.082505
    186 H383       84.5809   66.9023   32.3189 R1         2 LUT      0.104030
    187 H382       84.8527   66.0000   31.0445 R1         2 LUT      0.104030
    188 H381       83.6094   65.3039   32.1554 R1         2 LUT      0.104030
    189 H373       86.3511   61.8999   35.2849 T4         2 LUT      0.089537
    190 H372       87.1929   62.6853   36.7146 T4         2 LUT      0.089537
    191 H371       85.5650   63.0234   36.5254 T4         2 LUT      0.089537
    192 H363       88.0424   64.8817   36.4480 T4         2 LUT      0.089537
    193 H362       87.4103   65.9399   35.0490 T4         2 LUT      0.089537
    194 H361       86.4311   65.4302   36.4247 T4         2 LUT      0.089537
    195 H222       88.7884   63.3204   34.5836 U2         2 LUT      0.127376
    196 H221       87.6036   62.6107   33.4499 U2         2 LUT      0.127376
    197 H203       71.9632   61.9987   39.5115 R7         2 LUT      0.087068
    198 H202       73.4178   61.1295   39.3584 R7         2 LUT      0.087068
    199 H201       72.2197   60.4733   40.3682 R7         2 LUT      0.087068
    200 H193       67.7556   60.6140   43.7363 R4         2 LUT      0.089716
    201 H192       69.2542   60.1456   42.9887 R4         2 LUT      0.089716
    202 H191       68.8241   59.4815   44.5690 R4         2 LUT      0.089716
    203 H183       66.1491   64.9663   46.7470 R1         2 LUT      0.094572
    204 H182       65.5040   63.3719   46.1088 R1         2 LUT      0.094572
    205 H181       64.6590   64.3512   47.3350 R1         2 LUT      0.094572
    206 H173       68.5301   62.9529   50.1927 T4         2 LUT      0.093752
    207 H172       69.2361   61.3949   50.8013 T4         2 LUT      0.093752
    208 H171       69.8815   62.1015   49.3297 T4         2 LUT      0.093752
    209 H163       69.0618   59.3718   49.0244 T4         2 LUT      0.093752
    210 H162       67.9071   59.4691   47.6124 T4         2 LUT      0.093752
    211 H161       69.4629   60.1289   47.5182 T4         2 LUT      0.093752
    212 HO3        65.7506   61.6723   52.0720 Q1         2 LUT      0.300121
    213 H8         69.6437   62.8269   46.2679 U7         2 LUT      0.080784
    214 H7         67.0024   61.3066   45.9391 U6         2 LUT      0.042190
    215 H42        64.8983   63.7804   49.4774 U5         2 LUT      0.145166
    216 H41        66.7315   64.0044   49.8907 U5         2 LUT      0.145166
    217 H35        76.6203   64.1934   41.3694 T3         2 LUT      0.077919
    218 H34        77.5354   62.7944   38.7240 T2         2 LUT      0.073626
    219 H32        79.6042   63.2305   37.9170 T1         2 LUT      0.092510
    220 H31        81.0836   65.6472   38.9026 U9         2 LUT      0.070048
    221 H30        81.5116   63.3560   37.0496 U8         2 LUT      0.085442
    222 H3         64.8097   61.7760   49.9580 U3         2 LUT     -0.031596
    223 H28        83.4192   63.1005   35.6992 U7         2 LUT      0.084728
    224 H27        84.3129   65.8586   34.8269 U6         2 LUT      0.087291
    225 H26        85.0850   63.3032   33.4958 Q6         2 LUT      0.075325
    226 H24        87.2467   65.8848   31.3959 Q5         2 LUT      0.094482
    227 H23        88.7601   65.3718   33.5780 U3         2 LUT     -0.024869
    228 H22        66.1192   60.4036   48.8326 U2         2 LUT      0.127376
    229 H21        67.0672   60.0526   50.1778 U2         2 LUT      0.127376
    230 H15        75.4299   62.3427   39.3294 T3         2 LUT      0.093200
    231 H14        74.6004   63.6062   41.9824 T2         2 LUT      0.068865
    232 H12        72.7361   63.3527   43.0505 T1         2 LUT      0.095507
    233 H11        70.7520   61.1172   42.1252 U9         2 LUT      0.068930
    234 H10        70.8880   63.1512   44.4040 U8         2 LUT      0.083911
    235 H1         88.9760   63.6383   31.1610 Q1         2 LUT      0.297311
@<TRIPOS>BOND
    1     6     1 1
    2     7     2 1
    3     8     3 1
    4     9     4 1
    5    11     4 1
    6    12     6 1
    7    13     9 1
    8    16     9 1
    9    25     5 1
   10    25    16 1
   11    26    10 1
   12    26    17 1
   13    27    18 1
   14    28    14 1
   15    28    19 1
   16    29    12 1
   17    30    13 1
   18    31    24 1
   19    32     1 1
   20    32    25 1
   21    33    21 1
   22    33    26 1
   23    34    22 1
   24    34    27 1
   25    35    23 1
   26    35    28 1
   27    36    12 1
   28    36    24 1
   29    37    13 1
   30    37    15 1
   31    38    31 1
   32    39    20 1
   33    39    32 1
   34    40     2 1
   35    40    33 1
   36    41     3 1
   37    41    34 1
   38    42     4 1
   39    42    35 1
   40    43    38 1
   41    44     5 1
   42    44    17 1
   43    44    39 1
   44    45    10 1
   45    45    18 1
   46    45    40 1
   47    46    19 1
   48    46    41 1
   49    47    14 1
   50    47    16 1
   51    47    42 1
   52    48    38 1
   53    49    48 1
   54    50    49 1
   55    51    50 1
   56    52    51 1
   57    53    51 1
   58    54    53 1
   59    55    54 1
   60    56    55 1
   61    57    56 1
   62    58    56 1
   63    59    58 1
   64    60    59 1
   65    61    60 1
   66    62    61 1
   67    63    61 1
   68    64    27 1
   69    64    46 1
   70    65     5 1
   71    65    10 1
   72    65    64 1
   73    65    14 1
   74    66    23 1
   75    67    23 1
   76    68    23 1
   77    69    22 1
   78    70    22 1
   79    71    22 1
   80    72    21 1
   81    73    21 1
   82    74    21 1
   83    75    20 1
   84    76    20 1
   85    77    20 1
   86    78    15 1
   87    79    15 1
   88    80    15 1
   89    81     8 1
   90    82     8 1
   91    83     8 1
   92    84     7 1
   93    85     7 1
   94    86     6 1
   95    87     6 1
   96    88     3 1
   97    89     3 1
   98    90     1 1
   99    91     1 1
  100    92    63 1
  101    93    63 1
  102    94    63 1
  103    95    62 1
  104    96    62 1
  105    97    62 1
  106    98    60 1
  107    99    60 1
  108   100    59 1
  109   101    59 1
  110   102    58 1
  111   103    58 1
  112   104    57 1
  113   105    57 1
  114   106    57 1
  115   107    55 1
  116   108    55 1
  117   109    54 1
  118   110    54 1
  119   111    53 1
  120   112    53 1
  121   113    19 1
  122   114    18 1
  123   115    17 1
  124   116     9 1
  125   117     2 1
  126   118    52 1
  127   119    52 1
  128   120    52 1
  129   121    51 1
  130   122    50 1
  131   123    50 1
  132   124    49 1
  133   125    49 1
  134   126    48 1
  135   127    48 1
  136   128    43 1
  137   129    43 1
  138   130    43 1
  139   131    39 1
  140   132    32 1
  141   133    31 1
  142   134    61 1
  143   135    56 1
  144   136    24 1
  145   137    24 1
  146   139   138 1
  147   140   139 1
  148   141   140 1
  149   142   140 1
  150   143   142 1
  151   144   138 1
  152   144   143 1
  153   145   144 1
  154   146   145 1
  155   147   146 1
  156   148   147 1
  157   149   148 1
  158   150   149 1
  159   151   150 1
  160   152   151 1
  161   153   152 1
  162   154   138 1
  163   155   138 1
  164   156   143 1
  165   157   147 1
  166   158   151 1
  167   160   159 1
  168   161   160 1
  169   162   161 1
  170   163   161 1
  171   164   163 1
  172   165   159 1
  173   165   164 1
  174   166   165 1
  175   167   166 1
  176   168   167 1
  177   169   168 1
  178   170   169 1
  179   171   170 1
  180   172   171 1
  181   173   172 1
  182   174   153 1
  183   174   173 1
  184   175   159 1
  185   176   159 1
  186   177   164 1
  187   178   168 1
  188   179   172 1
  189   180   179 1
  190   181   179 1
  191   182   179 1
  192   183   178 1
  193   184   178 1
  194   185   178 1
  195   186   177 1
  196   187   177 1
  197   188   177 1
  198   189   176 1
  199   190   176 1
  200   191   176 1
  201   192   175 1
  202   193   175 1
  203   194   175 1
  204   195   160 1
  205   196   160 1
  206   197   158 1
  207   198   158 1
  208   199   158 1
  209   200   157 1
  210   201   157 1
  211   202   157 1
  212   203   156 1
  213   204   156 1
  214   205   156 1
  215   206   155 1
  216   207   155 1
  217   208   155 1
  218   209   154 1
  219   210   154 1
  220   211   154 1
  221   212   141 1
  222   213   146 1
  223   214   145 1
  224   215   142 1
  225   216   142 1
  226   217   174 1
  227   218   173 1
  228   219   171 1
  229   220   170 1
  230   221   169 1
  231   222   140 1
  232   223   167 1
  233   224   166 1
  234   225   165 1
  235   226   163 1
  236   227   161 1
  237   228   139 1
  238   229   139 1
  239   230   153 1
  240   231   152 1
  241   232   150 1
  242   233   149 1
  243   234   148 1
  244   235   162 1
  245   65    153 1
  246   65    174 1
@<TRIPOS>SUBSTRUCTURE
      1 CLA               1 ****               0 ****  **** 
      2 LUT             138 ****               0 ****  **** 
