@<TRIPOS>MOLECULE
Cpptraj generated mol2 file.
  235   246     2     0     0
SMALL
USER_CHARGES


@<TRIPOS>ATOM
      1 CAA        78.1401   59.2349   33.4301 a2         1 CLA     -0.055900
      2 CAB        78.3400   62.3806   42.8610 c8         1 CLA     -0.148500
      3 CAC        71.6026   58.1310   42.1627 a2         1 CLA     -0.012600
      4 CAD        74.0952   56.3041   34.7158 ck         1 CLA      0.398800
      5 NA         77.2438   59.2701   37.0163 ns         1 CLA     -0.225500
      6 CBA        79.3358   59.1507   32.4255 a2         1 CLA     -0.135000
      7 CBB        79.4538   62.0917   43.6119 c0         1 CLA     -0.395200
      8 CBC        71.4655   56.6056   42.0095 a3         1 CLA     -0.037700
      9 CBD        75.4956   56.9982   34.3283 a1         1 CLA     -0.053900
     10 NB         77.1980   60.6554   39.7032 nm         1 CLA     -0.295700
     11 OBD        73.5849   55.5427   33.9533 o2         1 CLA     -0.494600
     12 CGA        79.9395   57.7427   32.0343 c4         1 CLA      0.827000
     13 CGD        76.5178   55.9861   33.7892 c4         1 CLA      0.655300
     14 ND         74.6226   58.2840   37.6615 nm         1 CLA     -0.291600
     15 CED        77.0150   53.5930   33.8078 a3         1 CLA      0.005400
     16 CHA        75.9649   57.8324   35.5626 cs         1 CLA     -0.123800
     17 CHB        79.0359   60.5843   38.0766 aa         1 CLA     -0.291900
     18 CHC        75.9250   60.7171   41.8069 aa         1 CLA     -0.090400
     19 CHD        72.8513   57.9413   39.3218 aa         1 CLA     -0.052000
     20 CMA        80.6711   58.7658   36.1504 a3         1 CLA     -0.230700
     21 CMB        80.3914   62.4730   40.3463 a3         1 CLA     -0.180800
     22 CMC        73.5868   60.1133   43.8659 a3         1 CLA     -0.134000
     23 CMD        71.5939   56.2120   37.1915 a3         1 CLA     -0.141100
     24 C1         81.0735   55.7447   32.8230 a2         1 CLA      0.023000
     25 C1A        77.1010   58.6177   35.7660 ac         1 CLA     -0.015100
     26 C1B        78.4632   61.0089   39.3258 cr         1 CLA      0.054700
     27 C1C        74.8171   59.9296   41.5503 cn         1 CLA     -0.005600
     28 C1D        73.4592   57.7324   38.0769 ap         1 CLA     -0.047300
     29 O1A        79.6912   57.2355   30.9570 o2         1 CLA     -0.610800
     30 O1D        77.2964   56.1479   32.8855 o2         1 CLA     -0.558200
     31 C2         81.4716   55.1320   34.1374 c8         1 CLA     -0.325100
     32 C2A        78.3543   58.6568   34.8737 a1         1 CLA      0.098600
     33 C2B        79.0397   61.8186   40.4175 cb         1 CLA      0.088500
     34 C2C        73.7246   59.5946   42.4569 cb         1 CLA      0.053700
     35 C2D        72.9487   56.8554   37.0718 cb         1 CLA      0.058900
     36 O2A        80.6103   57.1274   33.0533 o1         1 CLA     -0.437200
     37 O2D        76.3662   54.7511   34.4194 o1         1 CLA     -0.357600
     38 C3         82.4781   54.2780   34.3685 c5         1 CLA      0.031200
     39 C3A        79.3428   59.4838   35.8046 a1         1 CLA      0.166800
     40 C3B        78.1655   61.7736   41.5098 cb         1 CLA      0.035000
     41 C3C        72.8919   58.7869   41.6882 cb         1 CLA     -0.089900
     42 C3D        73.8477   56.8385   36.0594 cb         1 CLA     -0.035900
     43 C4         82.3409   52.7631   34.6962 a3         1 CLA     -0.053300
     44 C4A        78.4933   59.8044   37.0479 ac         1 CLA      0.001800
     45 C4B        77.0516   61.0269   41.0226 cn         1 CLA     -0.020900
     46 C4C        73.4793   58.6228   40.3684 cr         1 CLA     -0.044400
     47 C4D        74.8725   57.7259   36.4512 c6         1 CLA     -0.046000
     48 C5         83.8235   54.8605   34.7567 a2         1 CLA     -0.070400
     49 C6         83.9479   56.2144   35.4166 a2         1 CLA      0.043900
     50 C7         83.4308   56.1907   36.9016 a2         1 CLA     -0.150000
     51 C8         83.8930   57.3970   37.8133 a1         1 CLA      0.064200
     52 C9         85.4246   57.5452   37.8334 a3         1 CLA     -0.259300
     53 C10        83.3554   57.3617   39.2815 a2         1 CLA     -0.071900
     54 C11        83.1502   58.7808   39.8011 a2         1 CLA      0.014500
     55 C12        83.5685   59.0165   41.2702 a2         1 CLA     -0.112100
     56 C13        82.6304   58.3860   42.3347 a1         1 CLA      0.089200
     57 C14        81.1238   58.8299   42.1842 a3         1 CLA     -0.239100
     58 C15        83.2409   58.3887   43.7615 a2         1 CLA     -0.102200
     59 C16        83.0227   59.5561   44.7074 a2         1 CLA      0.023900
     60 C17        84.0137   60.7182   44.3223 a2         1 CLA     -0.105700
     61 C18        84.1759   61.9145   45.3289 a1         1 CLA      0.206800
     62 C19        82.7591   62.6653   45.4841 a3         1 CLA     -0.280100
     63 C20        84.7869   61.5965   46.6946 a3         1 CLA     -0.280100
     64 NC         74.6717   59.3355   40.3136 nx         1 CLA     -0.309200
     65 MG         75.8723   59.4633   38.6772 mg         1 CLA      0.895000
     66 HMD3       70.9127   57.0459   37.2486 dc         1 CLA      0.064300
     67 HMD2       71.2570   55.5031   36.4411 dc         1 CLA      0.064300
     68 HMD1       71.5572   55.6224   38.1310 dc         1 CLA      0.064300
     69 HMC3       73.1630   59.3105   44.4891 dc         1 CLA      0.052100
     70 HMC2       74.5785   60.3448   44.3339 dc         1 CLA      0.052100
     71 HMC1       72.9379   60.9208   43.9148 dc         1 CLA      0.052100
     72 HMB3       80.5382   63.0334   41.1914 dc         1 CLA      0.063600
     73 HMB2       81.1574   61.6498   40.1000 dc         1 CLA      0.063600
     74 HMB1       80.4363   63.0773   39.4089 dc         1 CLA      0.063600
     75 HMA3       81.2440   59.3885   36.8466 dc         1 CLA      0.058300
     76 HMA2       80.6173   57.7120   36.4311 dc         1 CLA      0.058300
     77 HMA1       81.1240   58.8396   35.1985 dc         1 CLA      0.058300
     78 HED3       78.0636   53.7697   33.5616 dc         1 CLA      0.079300
     79 HED2       77.0040   52.7901   34.5247 dc         1 CLA      0.079300
     80 HED1       76.4316   53.3423   32.9880 dc         1 CLA      0.079300
     81 HBC3       70.9065   56.1474   42.8823 dc         1 CLA      0.016300
     82 HBC2       71.0803   56.4062   41.0106 dc         1 CLA      0.016300
     83 HBC1       72.4800   56.2382   42.0267 dc         1 CLA      0.016300
     84 HBB2       79.6088   62.4886   44.6115 da         1 CLA      0.183000
     85 HBB1       80.1305   61.3218   43.2394 da         1 CLA      0.183000
     86 HBA2       79.0868   59.6707   31.4611 dc         1 CLA      0.029400
     87 HBA1       80.2161   59.5115   32.9169 dc         1 CLA      0.029400
     88 HAC2       71.3683   58.3992   43.2014 dc         1 CLA      0.029300
     89 HAC1       70.7454   58.5332   41.6294 dc         1 CLA      0.029300
     90 HAA2       77.3336   58.6997   32.9639 dc         1 CLA      0.028700
     91 HAA1       77.7266   60.2380   33.4283 dc         1 CLA      0.028700
     92 H203       85.8362   61.2150   46.4863 dc         1 CLA      0.065600
     93 H202       84.8329   62.5280   47.2546 dc         1 CLA      0.065600
     94 H201       84.1469   60.7915   47.2148 dc         1 CLA      0.065600
     95 H193       82.4656   62.9273   44.4972 dc         1 CLA      0.065600
     96 H192       81.9817   62.1496   45.9951 dc         1 CLA      0.065600
     97 H191       82.8389   63.6101   46.0208 dc         1 CLA      0.065600
     98 H172       85.0218   60.2738   44.2472 dc         1 CLA      0.027600
     99 H171       83.6061   61.0861   43.3625 dc         1 CLA      0.027600
    100 H162       81.9895   59.8986   44.7617 dc         1 CLA      0.002900
    101 H161       83.4158   59.1056   45.6676 dc         1 CLA      0.002900
    102 H152       82.7839   57.5538   44.3991 dc         1 CLA      0.029100
    103 H151       84.2799   58.3287   43.5749 dc         1 CLA      0.029100
    104 H143       80.5201   58.3732   42.9741 dc         1 CLA      0.063600
    105 H142       81.1098   59.9267   42.0692 dc         1 CLA      0.063600
    106 H141       80.7935   58.4879   41.1936 dc         1 CLA      0.063600
    107 H122       84.6327   58.7680   41.4902 dc         1 CLA      0.032500
    108 H121       83.5469   60.0249   41.3466 dc         1 CLA      0.032500
    109 H112       83.8139   59.4915   39.2790 dc         1 CLA      0.006600
    110 H111       82.1343   59.2109   39.6260 dc         1 CLA      0.006600
    111 H102       82.3558   56.9332   39.3493 dc         1 CLA      0.024100
    112 H101       83.9195   56.7424   39.9544 dc         1 CLA      0.024100
    113 HHD        71.8843   57.5716   39.5539 da         1 CLA      0.174300
    114 HHC        75.9273   61.0808   42.8768 da         1 CLA      0.136800
    115 HHB        80.0502   61.0430   38.0225 da         1 CLA      0.138300
    116 HBD        75.2961   57.7582   33.5753 dc         1 CLA      0.107700
    117 HAB        77.6189   63.1664   43.2212 da         1 CLA      0.155200
    118 H93        85.6963   58.1285   38.6838 dc         1 CLA      0.069500
    119 H92        85.9110   56.5138   37.8959 dc         1 CLA      0.069500
    120 H91        85.7491   57.9478   36.9558 dc         1 CLA      0.069500
    121 H8         83.4970   58.2313   37.2111 dc         1 CLA      0.029300
    122 H72        82.3105   56.2488   36.8806 dc         1 CLA      0.044400
    123 H71        83.7216   55.2045   37.2894 dc         1 CLA      0.044400
    124 H62        84.9657   56.6001   35.4265 dc         1 CLA      0.015600
    125 H61        83.3003   56.9519   34.9419 dc         1 CLA      0.015600
    126 H52        84.2977   54.1802   35.3999 dc         1 CLA      0.033200
    127 H51        84.3669   54.8289   33.8047 dc         1 CLA      0.033200
    128 H43        82.5733   52.6231   35.7090 dc         1 CLA      0.037000
    129 H42        81.3559   52.3947   34.4244 dc         1 CLA      0.037000
    130 H41        83.0255   52.1568   34.1194 dc         1 CLA      0.037000
    131 H3A        79.6554   60.4198   35.3006 dc         1 CLA      0.041100
    132 H2A        78.7489   57.5828   34.7515 dc         1 CLA      0.083100
    133 H2         81.0272   55.5443   35.0200 da         1 CLA      0.180900
    134 H18        84.9484   62.4659   44.8590 dc         1 CLA     -0.003900
    135 H13        82.6496   57.3107   42.1009 dc         1 CLA      0.019700
    136 H12        80.2158   55.2099   32.4863 dc         1 CLA      0.120400
    137 H11        81.8318   55.6783   32.0291 dc         1 CLA      0.120400
    138 C1         68.3515   61.2048   49.4128 Z1         2 LUT      0.509236
    139 C2         67.9389   61.9336   50.6594 Z2         2 LUT     -0.434695
    140 C3         66.4725   62.2135   50.8051 Z3         2 LUT      0.437453
    141 O3         66.1731   62.8969   52.0522 S1         2 LUT     -0.547129
    142 C4         66.1065   63.0984   49.6889 Z4         2 LUT     -0.468603
    143 C5         66.8149   62.9877   48.3443 Z5         2 LUT      0.279246
    144 C6         67.8008   62.0876   48.2307 Z6         2 LUT     -0.305473
    145 C7         68.4760   61.9254   46.9763 Z7         2 LUT      0.069402
    146 C8         69.3127   62.7299   46.3299 Z8         2 LUT     -0.191631
    147 C9         69.9986   62.3347   45.0996 Z9         2 LUT      0.196698
    148 C10        70.9771   63.2317   44.6529 Y1         2 LUT     -0.208611
    149 C11        71.7281   63.1826   43.4010 Y2         2 LUT      0.030784
    150 C12        72.8471   63.9237   43.0459 Y3         2 LUT     -0.220316
    151 C13        73.6543   63.8569   41.8885 Y4         2 LUT      0.215937
    152 C14        74.8451   64.5156   41.8356 Y5         2 LUT     -0.185793
    153 C15        75.9527   64.4103   40.8773 Y6         2 LUT     -0.057835
    154 C16        67.8551   59.7126   49.4255 Y7         2 LUT     -0.405615
    155 C17        69.8738   61.0999   49.3876 Y7         2 LUT     -0.405615
    156 C18        66.3461   63.8856   47.2615 Y9         2 LUT     -0.369639
    157 C19        69.5438   61.0511   44.3598 W1         2 LUT     -0.333362
    158 C20        73.0714   63.1043   40.6649 W2         2 LUT     -0.323439
    159 C21        87.1485   65.8996   34.5553 Z1         2 LUT      0.406104
    160 C22        87.6655   65.5514   33.1975 Z2         2 LUT     -0.404965
    161 C23        87.7444   66.6172   32.0960 Z3         2 LUT      0.391255
    162 O23        88.3515   66.0642   30.8763 S1         2 LUT     -0.528210
    163 C24        86.5006   67.4304   32.0794 W6         2 LUT     -0.258361
    164 C25        85.5270   67.4319   33.0205 Z5         2 LUT      0.133546
    165 C26        85.6364   66.4884   34.2994 W8         2 LUT     -0.147008
    166 C27        85.0465   67.1008   35.5370 Z7         2 LUT      0.023843
    167 C28        83.8282   66.6661   35.9982 Z8         2 LUT     -0.216987
    168 C29        83.1511   67.1302   37.1758 Z9         2 LUT      0.206524
    169 C30        82.0993   66.4184   37.6466 Y1         2 LUT     -0.215556
    170 C31        81.2549   66.5962   38.8115 Y2         2 LUT      0.025142
    171 C32        80.1917   65.7875   38.9799 Y3         2 LUT     -0.212209
    172 C33        79.2240   65.8570   40.0772 Y4         2 LUT      0.240937
    173 C34        78.0641   65.1722   39.9525 Y5         2 LUT     -0.218862
    174 C35        76.9585   65.2825   40.9136 Y6         2 LUT     -0.023547
    175 C36        88.1908   66.8005   35.2115 Y7         2 LUT     -0.393485
    176 C37        87.1478   64.6062   35.3703 Y7         2 LUT     -0.393485
    177 C38        84.3345   68.2852   32.7602 Y9         2 LUT     -0.387526
    178 C39        83.6093   68.4560   37.8050 W1         2 LUT     -0.322618
    179 C40        79.4496   66.6337   41.3226 W2         2 LUT     -0.358472
    180 H403       79.1603   67.6739   41.1718 R7         2 LUT      0.097720
    181 H402       78.9277   66.2837   42.2193 R7         2 LUT      0.097720
    182 H401       80.5382   66.7435   41.5289 R7         2 LUT      0.097720
    183 H393       82.9139   68.8948   38.5077 R4         2 LUT      0.082505
    184 H392       84.4073   68.2788   38.5047 R4         2 LUT      0.082505
    185 H391       83.8447   69.2139   37.0701 R4         2 LUT      0.082505
    186 H383       83.7688   68.4547   33.6382 R1         2 LUT      0.104030
    187 H382       84.6405   69.2048   32.2870 R1         2 LUT      0.104030
    188 H381       83.6172   67.9161   31.9832 R1         2 LUT      0.104030
    189 H373       88.0316   64.0877   35.5573 T4         2 LUT      0.089537
    190 H372       86.7233   64.6949   36.3816 T4         2 LUT      0.089537
    191 H371       86.4191   63.9854   34.9042 T4         2 LUT      0.089537
    192 H363       88.2702   67.7908   34.6867 T4         2 LUT      0.089537
    193 H362       87.8170   66.9826   36.2034 T4         2 LUT      0.089537
    194 H361       89.2393   66.4306   35.3111 T4         2 LUT      0.089537
    195 H222       88.6825   65.2227   33.3774 U2         2 LUT      0.127376
    196 H221       87.1727   64.7268   32.8204 U2         2 LUT      0.127376
    197 H203       73.2797   63.5071   39.7287 R7         2 LUT      0.087068
    198 H202       73.4116   62.0518   40.6045 R7         2 LUT      0.087068
    199 H201       71.9619   63.0226   40.7276 R7         2 LUT      0.087068
    200 H193       70.4406   60.4693   44.0293 R4         2 LUT      0.089716
    201 H192       68.6704   60.3652   44.6510 R4         2 LUT      0.089716
    202 H191       69.1430   61.5623   43.4472 R4         2 LUT      0.089716
    203 H183       66.2507   63.2390   46.3774 R1         2 LUT      0.094572
    204 H182       65.2628   64.1377   47.5661 R1         2 LUT      0.094572
    205 H181       67.0362   64.7619   47.0975 R1         2 LUT      0.094572
    206 H173       70.2453   60.7328   50.3445 T4         2 LUT      0.093752
    207 H172       70.2026   60.4213   48.5289 T4         2 LUT      0.093752
    208 H171       70.3823   62.0812   49.2942 T4         2 LUT      0.093752
    209 H163       68.6170   59.0775   49.9191 T4         2 LUT      0.093752
    210 H162       67.0146   59.5870   49.9817 T4         2 LUT      0.093752
    211 H161       67.6893   59.3385   48.4166 T4         2 LUT      0.093752
    212 HO3        66.2179   62.1833   52.7397 Q1         2 LUT      0.300121
    213 H8         69.6081   63.5014   47.0333 U7         2 LUT      0.080784
    214 H7         68.4462   60.8871   46.5851 U6         2 LUT      0.042190
    215 H42        64.9828   63.1033   49.6009 U5         2 LUT      0.145166
    216 H41        66.4261   64.0420   50.0928 U5         2 LUT      0.145166
    217 H35        77.0115   66.1065   41.6519 T3         2 LUT      0.077919
    218 H34        78.0417   64.3888   39.1946 T2         2 LUT      0.073626
    219 H32        79.9375   65.1100   38.1311 T1         2 LUT      0.092510
    220 H31        81.4612   67.2945   39.5841 U9         2 LUT      0.070048
    221 H30        81.9045   65.6359   36.9541 U8         2 LUT      0.085442
    222 H3         65.8103   61.3086   50.7150 U3         2 LUT     -0.031596
    223 H28        83.2695   65.8839   35.4191 U7         2 LUT      0.084728
    224 H27        85.6551   67.5999   36.2708 U6         2 LUT      0.087291
    225 H26        85.0364   65.6368   34.1582 Q6         2 LUT      0.075325
    226 H24        86.5662   68.2461   31.3533 Q5         2 LUT      0.094482
    227 H23        88.4815   67.2598   32.4959 U3         2 LUT     -0.024869
    228 H22        68.1883   61.2569   51.4349 U2         2 LUT      0.127376
    229 H21        68.4512   62.8852   50.8086 U2         2 LUT      0.127376
    230 H15        76.0716   63.6525   40.0741 T3         2 LUT      0.093200
    231 H14        74.9722   65.2440   42.6800 T2         2 LUT      0.068865
    232 H12        73.1271   64.6770   43.7900 T1         2 LUT      0.095507
    233 H11        71.3529   62.4060   42.7304 U9         2 LUT      0.068930
    234 H10        71.1530   64.0477   45.2465 U8         2 LUT      0.083911
    235 H1         87.7341   66.1524   30.1419 Q1         2 LUT      0.297311
@<TRIPOS>BOND
    1     6     1 1
    2     7     2 1
    3     8     3 1
    4     9     4 1
    5    11     4 1
    6    12     6 1
    7    13     9 1
    8    16     9 1
    9    25     5 1
   10    25    16 1
   11    26    10 1
   12    26    17 1
   13    27    18 1
   14    28    14 1
   15    28    19 1
   16    29    12 1
   17    30    13 1
   18    31    24 1
   19    32     1 1
   20    32    25 1
   21    33    21 1
   22    33    26 1
   23    34    22 1
   24    34    27 1
   25    35    23 1
   26    35    28 1
   27    36    12 1
   28    36    24 1
   29    37    13 1
   30    37    15 1
   31    38    31 1
   32    39    20 1
   33    39    32 1
   34    40     2 1
   35    40    33 1
   36    41     3 1
   37    41    34 1
   38    42     4 1
   39    42    35 1
   40    43    38 1
   41    44     5 1
   42    44    17 1
   43    44    39 1
   44    45    10 1
   45    45    18 1
   46    45    40 1
   47    46    19 1
   48    46    41 1
   49    47    14 1
   50    47    16 1
   51    47    42 1
   52    48    38 1
   53    49    48 1
   54    50    49 1
   55    51    50 1
   56    52    51 1
   57    53    51 1
   58    54    53 1
   59    55    54 1
   60    56    55 1
   61    57    56 1
   62    58    56 1
   63    59    58 1
   64    60    59 1
   65    61    60 1
   66    62    61 1
   67    63    61 1
   68    64    27 1
   69    64    46 1
   70    65     5 1
   71    65    10 1
   72    65    64 1
   73    65    14 1
   74    66    23 1
   75    67    23 1
   76    68    23 1
   77    69    22 1
   78    70    22 1
   79    71    22 1
   80    72    21 1
   81    73    21 1
   82    74    21 1
   83    75    20 1
   84    76    20 1
   85    77    20 1
   86    78    15 1
   87    79    15 1
   88    80    15 1
   89    81     8 1
   90    82     8 1
   91    83     8 1
   92    84     7 1
   93    85     7 1
   94    86     6 1
   95    87     6 1
   96    88     3 1
   97    89     3 1
   98    90     1 1
   99    91     1 1
  100    92    63 1
  101    93    63 1
  102    94    63 1
  103    95    62 1
  104    96    62 1
  105    97    62 1
  106    98    60 1
  107    99    60 1
  108   100    59 1
  109   101    59 1
  110   102    58 1
  111   103    58 1
  112   104    57 1
  113   105    57 1
  114   106    57 1
  115   107    55 1
  116   108    55 1
  117   109    54 1
  118   110    54 1
  119   111    53 1
  120   112    53 1
  121   113    19 1
  122   114    18 1
  123   115    17 1
  124   116     9 1
  125   117     2 1
  126   118    52 1
  127   119    52 1
  128   120    52 1
  129   121    51 1
  130   122    50 1
  131   123    50 1
  132   124    49 1
  133   125    49 1
  134   126    48 1
  135   127    48 1
  136   128    43 1
  137   129    43 1
  138   130    43 1
  139   131    39 1
  140   132    32 1
  141   133    31 1
  142   134    61 1
  143   135    56 1
  144   136    24 1
  145   137    24 1
  146   139   138 1
  147   140   139 1
  148   141   140 1
  149   142   140 1
  150   143   142 1
  151   144   138 1
  152   144   143 1
  153   145   144 1
  154   146   145 1
  155   147   146 1
  156   148   147 1
  157   149   148 1
  158   150   149 1
  159   151   150 1
  160   152   151 1
  161   153   152 1
  162   154   138 1
  163   155   138 1
  164   156   143 1
  165   157   147 1
  166   158   151 1
  167   160   159 1
  168   161   160 1
  169   162   161 1
  170   163   161 1
  171   164   163 1
  172   165   159 1
  173   165   164 1
  174   166   165 1
  175   167   166 1
  176   168   167 1
  177   169   168 1
  178   170   169 1
  179   171   170 1
  180   172   171 1
  181   173   172 1
  182   174   153 1
  183   174   173 1
  184   175   159 1
  185   176   159 1
  186   177   164 1
  187   178   168 1
  188   179   172 1
  189   180   179 1
  190   181   179 1
  191   182   179 1
  192   183   178 1
  193   184   178 1
  194   185   178 1
  195   186   177 1
  196   187   177 1
  197   188   177 1
  198   189   176 1
  199   190   176 1
  200   191   176 1
  201   192   175 1
  202   193   175 1
  203   194   175 1
  204   195   160 1
  205   196   160 1
  206   197   158 1
  207   198   158 1
  208   199   158 1
  209   200   157 1
  210   201   157 1
  211   202   157 1
  212   203   156 1
  213   204   156 1
  214   205   156 1
  215   206   155 1
  216   207   155 1
  217   208   155 1
  218   209   154 1
  219   210   154 1
  220   211   154 1
  221   212   141 1
  222   213   146 1
  223   214   145 1
  224   215   142 1
  225   216   142 1
  226   217   174 1
  227   218   173 1
  228   219   171 1
  229   220   170 1
  230   221   169 1
  231   222   140 1
  232   223   167 1
  233   224   166 1
  234   225   165 1
  235   226   163 1
  236   227   161 1
  237   228   139 1
  238   229   139 1
  239   230   153 1
  240   231   152 1
  241   232   150 1
  242   233   149 1
  243   234   148 1
  244   235   162 1
  245   65    153 1
  246   65    174 1
@<TRIPOS>SUBSTRUCTURE
      1 CLA               1 ****               0 ****  **** 
      2 LUT             138 ****               0 ****  **** 
