@<TRIPOS>MOLECULE
Cpptraj generated mol2 file.
  235   246     2     0     0
SMALL
USER_CHARGES


@<TRIPOS>ATOM
      1 CAA        80.1639   59.1153   33.8659 a2         1 CLA     -0.055900
      2 CAB        79.4277   62.7182   42.8819 c8         1 CLA     -0.148500
      3 CAC        73.0739   57.9825   42.0034 a2         1 CLA     -0.012600
      4 CAD        76.1622   56.1640   34.7635 ck         1 CLA      0.398800
      5 NA         78.8756   59.4745   37.0311 ns         1 CLA     -0.225500
      6 CBA        81.3906   58.9466   32.9706 a2         1 CLA     -0.135000
      7 CBB        80.4466   63.3013   43.5164 c0         1 CLA     -0.395200
      8 CBC        73.2863   56.4661   42.2068 a3         1 CLA     -0.037700
      9 CBD        77.5069   56.9210   34.3809 a1         1 CLA     -0.053900
     10 NB         78.5746   60.8636   39.6596 nm         1 CLA     -0.295700
     11 OBD        75.5318   55.4294   33.9744 o2         1 CLA     -0.494600
     12 CGA        81.8810   57.6028   32.5681 c4         1 CLA      0.827000
     13 CGD        78.6394   55.9220   34.2174 c4         1 CLA      0.655300
     14 ND         76.1614   58.3969   37.4838 nm         1 CLA     -0.291600
     15 CED        79.5636   53.8842   35.1638 a3         1 CLA      0.005400
     16 CHA        77.7124   57.8654   35.5633 cs         1 CLA     -0.123800
     17 CHB        80.4319   60.9562   38.2161 aa         1 CLA     -0.291900
     18 CHC        77.0287   61.0846   41.5860 aa         1 CLA     -0.090400
     19 CHD        74.2693   57.9778   39.0179 aa         1 CLA     -0.052000
     20 CMA        82.3720   58.8739   36.9154 a3         1 CLA     -0.230700
     21 CMB        81.8113   62.6815   40.2822 a3         1 CLA     -0.180800
     22 CMC        74.7064   60.3676   43.4638 a3         1 CLA     -0.134000
     23 CMD        73.4005   55.9146   36.9530 a3         1 CLA     -0.141100
     24 C1         83.0163   55.6032   33.3494 a2         1 CLA      0.023000
     25 C1A        78.8435   58.6636   35.9306 ac         1 CLA     -0.015100
     26 C1B        79.8377   61.2744   39.4065 cr         1 CLA      0.054700
     27 C1C        75.9207   60.3922   41.1972 cn         1 CLA     -0.005600
     28 C1D        74.9621   57.7307   37.8308 ap         1 CLA     -0.047300
     29 O1A        81.5853   57.0063   31.4871 o2         1 CLA     -0.610800
     30 O1D        79.4353   55.9160   33.2962 o2         1 CLA     -0.558200
     31 C2         83.6328   55.1682   34.7231 c8         1 CLA     -0.325100
     32 C2A        80.2600   58.6017   35.2791 a1         1 CLA      0.098600
     33 C2B        80.4165   62.1310   40.4940 cb         1 CLA      0.088500
     34 C2C        74.8587   59.9307   42.0452 cb         1 CLA      0.053700
     35 C2D        74.6563   56.6842   36.9199 cb         1 CLA      0.058900
     36 O2A        82.5482   57.0395   33.6263 o1         1 CLA     -0.437200
     37 O2D        78.7104   55.0361   35.2127 o1         1 CLA     -0.357600
     38 C3         84.8061   54.5460   34.8597 c5         1 CLA      0.031200
     39 C3A        81.1574   59.5784   36.1770 a1         1 CLA      0.166800
     40 C3B        79.3824   62.1691   41.4689 cb         1 CLA      0.035000
     41 C3C        74.2236   58.8542   41.4062 cb         1 CLA     -0.089900
     42 C3D        75.6668   56.7239   35.9925 cb         1 CLA     -0.035900
     43 C4         84.8070   53.0574   35.2057 a3         1 CLA     -0.053300
     44 C4A        80.1057   60.0376   37.2486 ac         1 CLA      0.001800
     45 C4B        78.2698   61.3163   40.9422 cn         1 CLA     -0.020900
     46 C4C        74.7656   58.7393   40.0830 cr         1 CLA     -0.044400
     47 C4D        76.5528   57.7356   36.3730 c6         1 CLA     -0.046000
     48 C5         86.2060   55.1745   34.6729 a2         1 CLA     -0.070400
     49 C6         86.5280   56.4762   35.3337 a2         1 CLA      0.043900
     50 C7         86.9573   56.2040   36.8394 a2         1 CLA     -0.150000
     51 C8         88.4392   56.3610   37.3280 a1         1 CLA      0.064200
     52 C9         89.3656   55.3332   36.7954 a3         1 CLA     -0.259300
     53 C10        88.4933   56.3933   38.8798 a2         1 CLA     -0.071900
     54 C11        87.7466   57.5688   39.6236 a2         1 CLA      0.014500
     55 C12        88.1373   57.5096   41.1001 a2         1 CLA     -0.112100
     56 C13        87.1710   58.4850   41.9463 a1         1 CLA      0.089200
     57 C14        87.3786   59.9511   41.6598 a3         1 CLA     -0.239100
     58 C15        87.3355   58.1343   43.4731 a2         1 CLA     -0.102200
     59 C16        86.3789   58.7323   44.5068 a2         1 CLA      0.023900
     60 C17        86.7128   58.1871   45.9007 a2         1 CLA     -0.105700
     61 C18        85.6907   58.7643   46.9241 a1         1 CLA      0.206800
     62 C19        84.3220   58.0808   46.5925 a3         1 CLA     -0.280100
     63 C20        86.1256   58.2614   48.3970 a3         1 CLA     -0.280100
     64 NC         75.8214   59.6446   40.0039 nx         1 CLA     -0.309200
     65 MG         77.3159   59.7256   38.4193 mg         1 CLA      0.895000
     66 HMD3       73.3479   55.1843   37.8026 dc         1 CLA      0.064300
     67 HMD2       72.7089   56.7497   37.1749 dc         1 CLA      0.064300
     68 HMD1       73.1611   55.4201   36.0192 dc         1 CLA      0.064300
     69 HMC3       75.6187   60.0185   44.0629 dc         1 CLA      0.052100
     70 HMC2       74.8298   61.4626   43.4234 dc         1 CLA      0.052100
     71 HMC1       73.7390   60.2594   43.8742 dc         1 CLA      0.052100
     72 HMB3       82.2105   63.1403   41.1807 dc         1 CLA      0.063600
     73 HMB2       82.4766   61.8418   40.1197 dc         1 CLA      0.063600
     74 HMB1       81.7719   63.3740   39.3956 dc         1 CLA      0.063600
     75 HMA3       82.0232   58.3633   37.7910 dc         1 CLA      0.058300
     76 HMA2       82.7816   58.1575   36.1932 dc         1 CLA      0.058300
     77 HMA1       83.1425   59.6416   37.1529 dc         1 CLA      0.058300
     78 HED3       80.5553   54.2237   34.9574 dc         1 CLA      0.079300
     79 HED2       79.5403   53.3750   36.1135 dc         1 CLA      0.079300
     80 HED1       79.3502   53.2096   34.3430 dc         1 CLA      0.079300
     81 HBC3       74.1042   56.4084   42.9065 dc         1 CLA      0.016300
     82 HBC2       72.4323   55.8902   42.5398 dc         1 CLA      0.016300
     83 HBC1       73.5543   55.9730   41.2828 dc         1 CLA      0.016300
     84 HBB2       80.3074   63.6227   44.5278 da         1 CLA      0.183000
     85 HBB1       81.4201   63.5475   43.0667 da         1 CLA      0.183000
     86 HBA2       81.1181   59.4787   32.1094 dc         1 CLA      0.029400
     87 HBA1       82.1437   59.4901   33.5985 dc         1 CLA      0.029400
     88 HAC2       72.8632   58.3540   43.0054 dc         1 CLA      0.029300
     89 HAC1       72.2364   57.9737   41.3076 dc         1 CLA      0.029300
     90 HAA2       79.2773   58.5068   33.4950 dc         1 CLA      0.028700
     91 HAA1       79.8732   60.1503   33.8686 dc         1 CLA      0.028700
     92 H203       85.4129   58.7509   49.0785 dc         1 CLA      0.065600
     93 H202       86.0290   57.1947   48.4593 dc         1 CLA      0.065600
     94 H201       87.1339   58.5992   48.6489 dc         1 CLA      0.065600
     95 H193       84.5309   56.9782   46.5932 dc         1 CLA      0.065600
     96 H192       83.6924   58.3242   47.4625 dc         1 CLA      0.065600
     97 H191       83.8921   58.3429   45.6397 dc         1 CLA      0.065600
     98 H172       86.6168   57.0855   45.8717 dc         1 CLA      0.027600
     99 H171       87.7441   58.3479   46.0657 dc         1 CLA      0.027600
    100 H162       86.4406   59.8135   44.4746 dc         1 CLA      0.002900
    101 H161       85.4377   58.3911   44.1138 dc         1 CLA      0.002900
    102 H152       87.3579   57.0300   43.5715 dc         1 CLA      0.029100
    103 H151       88.3069   58.5513   43.8508 dc         1 CLA      0.029100
    104 H143       87.2801   60.0990   40.6372 dc         1 CLA      0.063600
    105 H142       86.7444   60.6204   42.2624 dc         1 CLA      0.063600
    106 H141       88.4475   60.2553   41.8262 dc         1 CLA      0.063600
    107 H122       88.1136   56.4355   41.4975 dc         1 CLA      0.032500
    108 H121       89.1373   57.7776   41.3849 dc         1 CLA      0.032500
    109 H112       88.2260   58.4666   39.2418 dc         1 CLA      0.006600
    110 H111       86.6965   57.6417   39.4131 dc         1 CLA      0.006600
    111 H102       88.1775   55.4043   39.1531 dc         1 CLA      0.024100
    112 H101       89.5328   56.5403   39.1314 dc         1 CLA      0.024100
    113 HHD        73.3015   57.5152   39.1711 da         1 CLA      0.174300
    114 HHC        76.9762   61.5822   42.5285 da         1 CLA      0.136800
    115 HHB        81.4242   61.3398   38.1343 da         1 CLA      0.138300
    116 HBD        77.3527   57.4324   33.4360 dc         1 CLA      0.107700
    117 HAB        78.5336   62.5442   43.4946 da         1 CLA      0.155200
    118 H93        89.2533   54.4095   37.2986 dc         1 CLA      0.069500
    119 H92        89.3997   55.2024   35.6680 dc         1 CLA      0.069500
    120 H91        90.3744   55.5954   37.0297 dc         1 CLA      0.069500
    121 H8         88.7821   57.2822   36.9297 dc         1 CLA      0.029300
    122 H72        86.4069   56.9924   37.3274 dc         1 CLA      0.044400
    123 H71        86.5894   55.2148   37.1573 dc         1 CLA      0.044400
    124 H62        87.3685   57.0585   34.8644 dc         1 CLA      0.015600
    125 H61        85.6102   57.0236   35.2255 dc         1 CLA      0.015600
    126 H52        86.9022   54.4273   35.0036 dc         1 CLA      0.033200
    127 H51        86.3361   55.2930   33.5277 dc         1 CLA      0.033200
    128 H43        85.4177   52.9082   36.1365 dc         1 CLA      0.037000
    129 H42        83.8370   52.7575   35.4452 dc         1 CLA      0.037000
    130 H41        85.2764   52.5610   34.3679 dc         1 CLA      0.037000
    131 H3A        81.5031   60.4742   35.6168 dc         1 CLA      0.041100
    132 H2A        80.6392   57.5641   35.3019 dc         1 CLA      0.083100
    133 H2         83.2748   55.6974   35.6482 da         1 CLA      0.180900
    134 H18        85.4888   59.8945   46.9460 dc         1 CLA     -0.003900
    135 H13        86.1383   58.1695   41.6745 dc         1 CLA      0.019700
    136 H12        82.2187   54.9094   33.1054 dc         1 CLA      0.120400
    137 H11        83.7131   55.6493   32.5232 dc         1 CLA      0.120400
    138 C1         69.4430   62.0524   49.3219 Z1         2 LUT      0.509236
    139 C2         68.2373   61.6384   50.1863 Z2         2 LUT     -0.434695
    140 C3         67.0836   62.5243   50.1817 Z3         2 LUT      0.437453
    141 O3         66.8152   63.0030   51.4874 S1         2 LUT     -0.547129
    142 C4         67.2374   63.7579   49.3031 Z4         2 LUT     -0.468603
    143 C5         68.0902   63.6627   48.0883 Z5         2 LUT      0.279246
    144 C6         69.0416   62.7565   47.9730 Z6         2 LUT     -0.305473
    145 C7         69.7602   62.3115   46.7799 Z7         2 LUT      0.069402
    146 C8         70.7314   63.0357   46.1699 Z8         2 LUT     -0.191631
    147 C9         71.4070   62.7099   44.8675 Z9         2 LUT      0.196698
    148 C10        72.3018   63.6344   44.2831 Y1         2 LUT     -0.208611
    149 C11        73.0851   63.6285   43.1018 Y2         2 LUT      0.030784
    150 C12        74.2350   64.3440   42.9211 Y3         2 LUT     -0.220316
    151 C13        75.1810   64.1937   41.7870 Y4         2 LUT      0.215937
    152 C14        76.3887   64.8724   41.8722 Y5         2 LUT     -0.185793
    153 C15        77.5088   64.7457   40.9792 Y6         2 LUT     -0.057835
    154 C16        70.3927   60.7758   49.0451 Y7         2 LUT     -0.405615
    155 C17        70.2363   63.1199   50.1958 Y7         2 LUT     -0.405615
    156 C18        67.6899   64.5458   47.0043 Y9         2 LUT     -0.369639
    157 C19        71.1595   61.3901   44.1346 W1         2 LUT     -0.333362
    158 C20        74.6925   63.4625   40.5820 W2         2 LUT     -0.323439
    159 C21        89.0255   66.4185   35.1014 Z1         2 LUT      0.406104
    160 C22        89.6874   65.6590   33.9194 Z2         2 LUT     -0.404965
    161 C23        89.6069   66.4633   32.5853 Z3         2 LUT      0.391255
    162 O23        89.8525   65.4988   31.6649 S1         2 LUT     -0.528210
    163 C24        88.3381   67.2645   32.4593 W6         2 LUT     -0.258361
    164 C25        87.4393   67.5617   33.3866 Z5         2 LUT      0.133546
    165 C26        87.5637   66.8816   34.7162 W8         2 LUT     -0.147008
    166 C27        86.8071   67.5329   35.8509 Z7         2 LUT      0.023843
    167 C28        85.6224   67.1927   36.3647 Z8         2 LUT     -0.216987
    168 C29        84.8950   67.4525   37.6209 Z9         2 LUT      0.206524
    169 C30        83.7438   66.8553   37.8999 Y1         2 LUT     -0.215556
    170 C31        82.9981   66.9697   39.1658 Y2         2 LUT      0.025142
    171 C32        81.8424   66.2654   39.4521 Y3         2 LUT     -0.212209
    172 C33        80.9332   66.3147   40.5069 Y4         2 LUT      0.240937
    173 C34        79.6995   65.7473   40.3244 Y5         2 LUT     -0.218862
    174 C35        78.5615   65.5498   41.1647 Y6         2 LUT     -0.023547
    175 C36        90.0395   67.5237   35.4466 Y7         2 LUT     -0.393485
    176 C37        88.9581   65.4153   36.3413 Y7         2 LUT     -0.393485
    177 C38        86.3536   68.4867   32.9846 Y9         2 LUT     -0.387526
    178 C39        85.4857   68.4652   38.5071 W1         2 LUT     -0.322618
    179 C40        81.1243   67.2214   41.7125 W2         2 LUT     -0.358472
    180 H403       82.2631   67.2538   41.8697 R7         2 LUT      0.097720
    181 H402       80.8163   68.2304   41.5663 R7         2 LUT      0.097720
    182 H401       80.6542   66.8307   42.5901 R7         2 LUT      0.097720
    183 H393       86.5743   68.5074   38.5148 R4         2 LUT      0.082505
    184 H392       85.0907   69.3907   38.2169 R4         2 LUT      0.082505
    185 H391       85.2583   68.3727   39.5334 R4         2 LUT      0.082505
    186 H383       86.1130   68.2290   31.9770 R1         2 LUT      0.104030
    187 H382       85.4062   68.3209   33.5755 R1         2 LUT      0.104030
    188 H381       86.5935   69.5588   32.9083 R1         2 LUT      0.104030
    189 H373       89.7078   64.6483   36.3647 T4         2 LUT      0.089537
    190 H372       88.9591   66.0567   37.2820 T4         2 LUT      0.089537
    191 H371       88.0445   64.8906   36.2948 T4         2 LUT      0.089537
    192 H363       90.0120   68.3601   34.7741 T4         2 LUT      0.089537
    193 H362       89.8162   67.7658   36.5072 T4         2 LUT      0.089537
    194 H361       91.1067   67.1590   35.6391 T4         2 LUT      0.089537
    195 H222       90.7610   65.5234   34.0618 U2         2 LUT      0.127376
    196 H221       89.2035   64.6730   33.7507 U2         2 LUT      0.127376
    197 H203       74.0637   64.1175   40.0244 R7         2 LUT      0.087068
    198 H202       75.5370   63.2918   39.8885 R7         2 LUT      0.087068
    199 H201       74.2444   62.4845   40.7238 R7         2 LUT      0.087068
    200 H193       71.5276   61.2675   43.0480 R4         2 LUT      0.089716
    201 H192       71.5590   60.5011   44.7180 R4         2 LUT      0.089716
    202 H191       70.0552   61.3505   44.0701 R4         2 LUT      0.089716
    203 H183       68.2030   64.2234   46.0619 R1         2 LUT      0.094572
    204 H182       66.5826   64.7252   47.0003 R1         2 LUT      0.094572
    205 H181       68.0628   65.5734   47.1944 R1         2 LUT      0.094572
    206 H173       70.7588   62.5133   50.9658 T4         2 LUT      0.093752
    207 H172       71.0275   63.6853   49.6831 T4         2 LUT      0.093752
    208 H171       69.6432   63.8605   50.7449 T4         2 LUT      0.093752
    209 H163       71.3190   61.0106   48.6357 T4         2 LUT      0.093752
    210 H162       70.5785   60.1727   49.9841 T4         2 LUT      0.093752
    211 H161       69.9800   60.1050   48.2220 T4         2 LUT      0.093752
    212 HO3        66.1548   62.3663   51.9131 Q1         2 LUT      0.300121
    213 H8         71.0470   63.9689   46.5898 U7         2 LUT      0.080784
    214 H7         69.4296   61.4206   46.3257 U6         2 LUT      0.042190
    215 H42        66.2540   64.0712   49.0994 U5         2 LUT      0.145166
    216 H41        67.7282   64.6121   49.7870 U5         2 LUT      0.145166
    217 H35        78.5737   66.1916   42.0380 T3         2 LUT      0.077919
    218 H34        79.5925   65.2183   39.3503 T2         2 LUT      0.073626
    219 H32        81.5615   65.5758   38.6334 T1         2 LUT      0.092510
    220 H31        83.2267   67.6538   39.9913 U9         2 LUT      0.070048
    221 H30        83.3731   66.1939   37.0998 U8         2 LUT      0.085442
    222 H3         66.3051   61.9312   49.6575 U3         2 LUT     -0.031596
    223 H28        85.0762   66.4713   35.6834 U7         2 LUT      0.084728
    224 H27        87.3081   68.3171   36.4427 U6         2 LUT      0.087291
    225 H26        87.0209   65.9709   34.6795 Q6         2 LUT      0.075325
    226 H24        88.3006   67.7526   31.4910 Q5         2 LUT      0.094482
    227 H23        90.4339   67.1957   32.6006 U3         2 LUT     -0.024869
    228 H22        67.8582   60.7180   49.6638 U2         2 LUT      0.127376
    229 H21        68.4854   61.3135   51.2002 U2         2 LUT      0.127376
    230 H15        77.5408   63.9836   40.2292 T3         2 LUT      0.093200
    231 H14        76.6126   65.5731   42.7097 T2         2 LUT      0.068865
    232 H12        74.5494   64.9165   43.7473 T1         2 LUT      0.095507
    233 H11        72.8823   62.8262   42.3726 U9         2 LUT      0.068930
    234 H10        72.4341   64.5987   44.8842 U8         2 LUT      0.083911
    235 H1         89.9303   65.7586   30.7618 Q1         2 LUT      0.297311
@<TRIPOS>BOND
    1     6     1 1
    2     7     2 1
    3     8     3 1
    4     9     4 1
    5    11     4 1
    6    12     6 1
    7    13     9 1
    8    16     9 1
    9    25     5 1
   10    25    16 1
   11    26    10 1
   12    26    17 1
   13    27    18 1
   14    28    14 1
   15    28    19 1
   16    29    12 1
   17    30    13 1
   18    31    24 1
   19    32     1 1
   20    32    25 1
   21    33    21 1
   22    33    26 1
   23    34    22 1
   24    34    27 1
   25    35    23 1
   26    35    28 1
   27    36    12 1
   28    36    24 1
   29    37    13 1
   30    37    15 1
   31    38    31 1
   32    39    20 1
   33    39    32 1
   34    40     2 1
   35    40    33 1
   36    41     3 1
   37    41    34 1
   38    42     4 1
   39    42    35 1
   40    43    38 1
   41    44     5 1
   42    44    17 1
   43    44    39 1
   44    45    10 1
   45    45    18 1
   46    45    40 1
   47    46    19 1
   48    46    41 1
   49    47    14 1
   50    47    16 1
   51    47    42 1
   52    48    38 1
   53    49    48 1
   54    50    49 1
   55    51    50 1
   56    52    51 1
   57    53    51 1
   58    54    53 1
   59    55    54 1
   60    56    55 1
   61    57    56 1
   62    58    56 1
   63    59    58 1
   64    60    59 1
   65    61    60 1
   66    62    61 1
   67    63    61 1
   68    64    27 1
   69    64    46 1
   70    65     5 1
   71    65    10 1
   72    65    64 1
   73    65    14 1
   74    66    23 1
   75    67    23 1
   76    68    23 1
   77    69    22 1
   78    70    22 1
   79    71    22 1
   80    72    21 1
   81    73    21 1
   82    74    21 1
   83    75    20 1
   84    76    20 1
   85    77    20 1
   86    78    15 1
   87    79    15 1
   88    80    15 1
   89    81     8 1
   90    82     8 1
   91    83     8 1
   92    84     7 1
   93    85     7 1
   94    86     6 1
   95    87     6 1
   96    88     3 1
   97    89     3 1
   98    90     1 1
   99    91     1 1
  100    92    63 1
  101    93    63 1
  102    94    63 1
  103    95    62 1
  104    96    62 1
  105    97    62 1
  106    98    60 1
  107    99    60 1
  108   100    59 1
  109   101    59 1
  110   102    58 1
  111   103    58 1
  112   104    57 1
  113   105    57 1
  114   106    57 1
  115   107    55 1
  116   108    55 1
  117   109    54 1
  118   110    54 1
  119   111    53 1
  120   112    53 1
  121   113    19 1
  122   114    18 1
  123   115    17 1
  124   116     9 1
  125   117     2 1
  126   118    52 1
  127   119    52 1
  128   120    52 1
  129   121    51 1
  130   122    50 1
  131   123    50 1
  132   124    49 1
  133   125    49 1
  134   126    48 1
  135   127    48 1
  136   128    43 1
  137   129    43 1
  138   130    43 1
  139   131    39 1
  140   132    32 1
  141   133    31 1
  142   134    61 1
  143   135    56 1
  144   136    24 1
  145   137    24 1
  146   139   138 1
  147   140   139 1
  148   141   140 1
  149   142   140 1
  150   143   142 1
  151   144   138 1
  152   144   143 1
  153   145   144 1
  154   146   145 1
  155   147   146 1
  156   148   147 1
  157   149   148 1
  158   150   149 1
  159   151   150 1
  160   152   151 1
  161   153   152 1
  162   154   138 1
  163   155   138 1
  164   156   143 1
  165   157   147 1
  166   158   151 1
  167   160   159 1
  168   161   160 1
  169   162   161 1
  170   163   161 1
  171   164   163 1
  172   165   159 1
  173   165   164 1
  174   166   165 1
  175   167   166 1
  176   168   167 1
  177   169   168 1
  178   170   169 1
  179   171   170 1
  180   172   171 1
  181   173   172 1
  182   174   153 1
  183   174   173 1
  184   175   159 1
  185   176   159 1
  186   177   164 1
  187   178   168 1
  188   179   172 1
  189   180   179 1
  190   181   179 1
  191   182   179 1
  192   183   178 1
  193   184   178 1
  194   185   178 1
  195   186   177 1
  196   187   177 1
  197   188   177 1
  198   189   176 1
  199   190   176 1
  200   191   176 1
  201   192   175 1
  202   193   175 1
  203   194   175 1
  204   195   160 1
  205   196   160 1
  206   197   158 1
  207   198   158 1
  208   199   158 1
  209   200   157 1
  210   201   157 1
  211   202   157 1
  212   203   156 1
  213   204   156 1
  214   205   156 1
  215   206   155 1
  216   207   155 1
  217   208   155 1
  218   209   154 1
  219   210   154 1
  220   211   154 1
  221   212   141 1
  222   213   146 1
  223   214   145 1
  224   215   142 1
  225   216   142 1
  226   217   174 1
  227   218   173 1
  228   219   171 1
  229   220   170 1
  230   221   169 1
  231   222   140 1
  232   223   167 1
  233   224   166 1
  234   225   165 1
  235   226   163 1
  236   227   161 1
  237   228   139 1
  238   229   139 1
  239   230   153 1
  240   231   152 1
  241   232   150 1
  242   233   149 1
  243   234   148 1
  244   235   162 1
  245   65    153 1
  246   65    174 1
@<TRIPOS>SUBSTRUCTURE
      1 CLA               1 ****               0 ****  **** 
      2 LUT             138 ****               0 ****  **** 
