@<TRIPOS>MOLECULE
Cpptraj generated mol2 file.
  235   246     2     0     0
SMALL
USER_CHARGES


@<TRIPOS>ATOM
      1 CAA        77.1185   58.2465   34.7952 a2         1 CLA     -0.055900
      2 CAB        77.0859   61.8677   43.8351 c8         1 CLA     -0.148500
      3 CAC        70.1177   57.7294   43.3233 a2         1 CLA     -0.012600
      4 CAD        73.1938   55.3866   36.2260 ck         1 CLA      0.398800
      5 NA         76.1950   58.4742   38.3206 ns         1 CLA     -0.225500
      6 CBA        78.3910   58.5578   33.9053 a2         1 CLA     -0.135000
      7 CBB        77.6318   63.0609   44.0280 c0         1 CLA     -0.395200
      8 CBC        70.4150   56.3439   43.6795 a3         1 CLA     -0.037700
      9 CBD        74.6720   55.8306   36.0560 a1         1 CLA     -0.053900
     10 NB         75.9986   59.9781   40.8380 nm         1 CLA     -0.295700
     11 OBD        72.5717   54.6990   35.4137 o2         1 CLA     -0.494600
     12 CGA        79.1680   57.3236   33.4747 c4         1 CLA      0.827000
     13 CGD        75.6306   54.6490   36.0884 c4         1 CLA      0.655300
     14 ND         73.4724   57.4808   39.0484 nm         1 CLA     -0.291600
     15 CED        75.7922   52.4946   37.0377 a3         1 CLA      0.005400
     16 CHA        74.9719   56.8887   37.0731 cs         1 CLA     -0.123800
     17 CHB        77.8576   60.1424   39.1549 aa         1 CLA     -0.291900
     18 CHC        74.6384   60.1811   42.8902 aa         1 CLA     -0.090400
     19 CHD        71.5740   57.2978   40.5291 aa         1 CLA     -0.052000
     20 CMA        79.6776   58.0608   37.6673 a3         1 CLA     -0.230700
     21 CMB        79.2454   61.9296   41.3122 a3         1 CLA     -0.180800
     22 CMC        72.1131   59.7121   44.8765 a3         1 CLA     -0.134000
     23 CMD        70.4586   55.2611   38.3776 a3         1 CLA     -0.141100
     24 C1         80.6084   55.5814   34.4374 a2         1 CLA      0.023000
     25 C1A        76.1127   57.6851   37.2099 ac         1 CLA     -0.015100
     26 C1B        77.2237   60.4672   40.3702 cr         1 CLA      0.054700
     27 C1C        73.4756   59.4121   42.6061 cn         1 CLA     -0.005600
     28 C1D        72.2474   56.9177   39.3990 ap         1 CLA     -0.047300
     29 O1A        79.3884   56.8642   32.3602 o2         1 CLA     -0.610800
     30 O1D        76.5686   54.4197   35.3308 o2         1 CLA     -0.558200
     31 C2         81.0277   55.2202   35.7592 c8         1 CLA     -0.325100
     32 C2A        77.4121   57.7771   36.2707 a1         1 CLA      0.098600
     33 C2B        77.8151   61.2896   41.4234 cb         1 CLA      0.088500
     34 C2C        72.3096   59.1942   43.4147 cb         1 CLA      0.053700
     35 C2D        71.7624   55.9997   38.4049 cb         1 CLA      0.058900
     36 O2A        79.7406   56.7666   34.6785 o1         1 CLA     -0.437200
     37 O2D        75.1728   53.7753   37.0701 o1         1 CLA     -0.357600
     38 C3         81.6214   54.0149   36.0413 c5         1 CLA      0.031200
     39 C3A        78.3598   58.7395   37.1153 a1         1 CLA      0.166800
     40 C3B        76.9412   61.2963   42.4819 cb         1 CLA      0.035000
     41 C3C        71.4301   58.4101   42.7345 cb         1 CLA     -0.089900
     42 C3D        72.8121   55.9714   37.4944 cb         1 CLA     -0.035900
     43 C4         80.8881   52.8607   36.4505 a3         1 CLA     -0.053300
     44 C4A        77.3643   59.1669   38.2438 ac         1 CLA      0.001800
     45 C4B        75.7719   60.5221   42.0763 cn         1 CLA     -0.020900
     46 C4C        72.0741   58.1643   41.5207 cr         1 CLA     -0.044400
     47 C4D        73.8485   56.8274   37.8887 c6         1 CLA     -0.046000
     48 C5         83.0963   53.8990   35.9389 a2         1 CLA     -0.070400
     49 C6         83.9709   55.1247   36.3125 a2         1 CLA      0.043900
     50 C7         83.8595   55.4542   37.7717 a2         1 CLA     -0.150000
     51 C8         84.8884   56.5915   38.1987 a1         1 CLA      0.064200
     52 C9         86.3477   56.3065   37.7326 a3         1 CLA     -0.259300
     53 C10        84.7889   56.9436   39.7531 a2         1 CLA     -0.071900
     54 C11        83.4202   57.4821   40.1777 a2         1 CLA      0.014500
     55 C12        83.5997   58.4753   41.3592 a2         1 CLA     -0.112100
     56 C13        84.4323   58.1152   42.6299 a1         1 CLA      0.089200
     57 C14        83.9120   56.8002   43.2806 a3         1 CLA     -0.239100
     58 C15        84.4494   59.3320   43.6715 a2         1 CLA     -0.102200
     59 C16        83.1405   59.9257   44.1279 a2         1 CLA      0.023900
     60 C17        83.2611   60.7762   45.4268 a2         1 CLA     -0.105700
     61 C18        81.9359   61.0528   46.1355 a1         1 CLA      0.206800
     62 C19        82.2080   61.7622   47.5407 a3         1 CLA     -0.280100
     63 C20        80.9982   61.9997   45.2023 a3         1 CLA     -0.280100
     64 NC         73.2475   58.8308   41.3897 nx         1 CLA     -0.309200
     65 MG         74.6578   58.7565   39.8477 mg         1 CLA      0.895000
     66 HMD3       70.1431   55.2425   39.4402 dc         1 CLA      0.064300
     67 HMD2       69.6287   55.6890   37.8638 dc         1 CLA      0.064300
     68 HMD1       70.6024   54.2512   38.0422 dc         1 CLA      0.064300
     69 HMC3       71.1029   59.7217   45.1800 dc         1 CLA      0.052100
     70 HMC2       72.7102   59.0990   45.5580 dc         1 CLA      0.052100
     71 HMC1       72.4706   60.8029   44.8895 dc         1 CLA      0.052100
     72 HMB3       79.9551   61.1390   41.0733 dc         1 CLA      0.063600
     73 HMB2       79.1874   62.5787   40.4335 dc         1 CLA      0.063600
     74 HMB1       79.6340   62.2725   42.2422 dc         1 CLA      0.063600
     75 HMA3       80.3440   57.9419   36.8681 dc         1 CLA      0.058300
     76 HMA2       80.0340   58.6742   38.4573 dc         1 CLA      0.058300
     77 HMA1       79.3919   57.0366   38.0314 dc         1 CLA      0.058300
     78 HED3       75.6110   51.9034   37.9008 dc         1 CLA      0.079300
     79 HED2       75.2795   52.0675   36.1749 dc         1 CLA      0.079300
     80 HED1       76.8810   52.5676   36.7922 dc         1 CLA      0.079300
     81 HBC3       69.7189   56.0648   44.4205 dc         1 CLA      0.016300
     82 HBC2       70.4428   55.6657   42.8217 dc         1 CLA      0.016300
     83 HBC1       71.2787   56.2770   44.2187 dc         1 CLA      0.016300
     84 HBB2       77.7582   63.5386   45.0095 da         1 CLA      0.183000
     85 HBB1       78.0753   63.6649   43.2123 da         1 CLA      0.183000
     86 HBA2       78.0982   59.0716   32.9617 dc         1 CLA      0.029400
     87 HBA1       79.1269   59.1491   34.4138 dc         1 CLA      0.029400
     88 HAC2       69.7515   58.2140   44.2321 dc         1 CLA      0.029300
     89 HAC1       69.3236   57.6678   42.5873 dc         1 CLA      0.029300
     90 HAA2       76.4996   57.4169   34.3798 dc         1 CLA      0.028700
     91 HAA1       76.4368   59.1201   34.9159 dc         1 CLA      0.028700
     92 H203       80.0951   62.0812   45.7152 dc         1 CLA      0.065600
     93 H202       81.4665   62.9904   45.0320 dc         1 CLA      0.065600
     94 H201       80.7801   61.4610   44.3011 dc         1 CLA      0.065600
     95 H193       81.3379   62.0856   48.0938 dc         1 CLA      0.065600
     96 H192       82.7462   61.0929   48.1149 dc         1 CLA      0.065600
     97 H191       82.8187   62.6570   47.3862 dc         1 CLA      0.065600
     98 H172       83.9731   60.3174   46.1352 dc         1 CLA      0.027600
     99 H171       83.7362   61.7085   45.2204 dc         1 CLA      0.027600
    100 H162       82.7830   60.6011   43.3206 dc         1 CLA      0.002900
    101 H161       82.3675   59.1880   44.2201 dc         1 CLA      0.002900
    102 H152       85.1057   59.0212   44.4187 dc         1 CLA      0.029100
    103 H151       84.8960   60.1182   43.1156 dc         1 CLA      0.029100
    104 H143       82.9706   56.8746   43.7681 dc         1 CLA      0.063600
    105 H142       84.0035   55.9548   42.5556 dc         1 CLA      0.063600
    106 H141       84.6022   56.6416   44.0909 dc         1 CLA      0.063600
    107 H122       84.0769   59.3693   40.9785 dc         1 CLA      0.032500
    108 H121       82.6092   58.6300   41.7752 dc         1 CLA      0.032500
    109 H112       82.8182   57.8507   39.3238 dc         1 CLA      0.006600
    110 H111       82.7872   56.7122   40.6148 dc         1 CLA      0.006600
    111 H102       84.8685   56.0490   40.4020 dc         1 CLA      0.024100
    112 H101       85.5786   57.6140   39.9128 dc         1 CLA      0.024100
    113 HHD        70.6719   56.7825   40.9033 da         1 CLA      0.174300
    114 HHC        74.6328   60.6426   43.8600 da         1 CLA      0.136800
    115 HHB        78.8845   60.6125   39.0841 da         1 CLA      0.138300
    116 HBD        74.7720   56.1765   35.0339 dc         1 CLA      0.107700
    117 HAB        76.7125   61.3715   44.7119 da         1 CLA      0.155200
    118 H93        86.3746   56.4346   36.5862 dc         1 CLA      0.069500
    119 H92        87.1360   56.9981   37.9233 dc         1 CLA      0.069500
    120 H91        86.6778   55.3326   38.0928 dc         1 CLA      0.069500
    121 H8         84.5357   57.5006   37.7547 dc         1 CLA      0.029300
    122 H72        82.8269   55.7968   38.0223 dc         1 CLA      0.044400
    123 H71        84.0867   54.5653   38.2601 dc         1 CLA      0.044400
    124 H62        84.9914   54.7311   36.2135 dc         1 CLA      0.015600
    125 H61        83.8504   56.0081   35.6480 dc         1 CLA      0.015600
    126 H52        83.4450   53.1070   36.5071 dc         1 CLA      0.033200
    127 H51        83.2215   53.6184   34.9164 dc         1 CLA      0.033200
    128 H43        81.2452   52.8362   37.4900 dc         1 CLA      0.037000
    129 H42        79.7891   52.9242   36.5508 dc         1 CLA      0.037000
    130 H41        81.2467   51.9513   35.9215 dc         1 CLA      0.037000
    131 H3A        78.5440   59.6312   36.5781 dc         1 CLA      0.041100
    132 H2A        77.8586   56.7907   36.2654 dc         1 CLA      0.083100
    133 H2         80.9595   55.9897   36.5270 da         1 CLA      0.180900
    134 H18        81.4057   60.0900   46.3113 dc         1 CLA     -0.003900
    135 H13        85.4998   57.9718   42.3495 dc         1 CLA      0.019700
    136 H12        80.0145   54.7930   33.9599 dc         1 CLA      0.120400
    137 H11        81.4512   55.8295   33.7920 dc         1 CLA      0.120400
    138 C1         67.4735   61.2674   50.6977 Z1         2 LUT      0.509236
    139 C2         66.0981   61.1575   51.3412 Z2         2 LUT     -0.434695
    140 C3         65.3101   62.4445   51.7277 Z3         2 LUT      0.437453
    141 O3         65.1200   62.8184   53.1727 S1         2 LUT     -0.547129
    142 C4         65.8215   63.5974   50.9326 Z4         2 LUT     -0.468603
    143 C5         66.4843   63.2466   49.6582 Z5         2 LUT      0.279246
    144 C6         67.3824   62.1760   49.4920 Z6         2 LUT     -0.305473
    145 C7         67.7919   61.5650   48.1061 Z7         2 LUT      0.069402
    146 C8         68.4535   62.2344   47.1840 Z8         2 LUT     -0.191631
    147 C9         68.8776   61.9479   45.7891 Z9         2 LUT      0.196698
    148 C10        69.7901   62.8442   45.2258 Y1         2 LUT     -0.208611
    149 C11        70.4848   62.8188   43.9234 Y2         2 LUT      0.030784
    150 C12        71.6148   63.5054   43.6684 Y3         2 LUT     -0.220316
    151 C13        72.4072   63.3319   42.4022 Y4         2 LUT      0.215937
    152 C14        73.7410   63.8328   42.3426 Y5         2 LUT     -0.185793
    153 C15        74.7091   63.9011   41.2421 Y6         2 LUT     -0.057835
    154 C16        67.9898   59.7641   50.4723 Y7         2 LUT     -0.405615
    155 C17        68.4673   62.0431   51.6281 Y7         2 LUT     -0.405615
    156 C18        65.7931   63.9274   48.5233 Y9         2 LUT     -0.369639
    157 C19        68.2745   60.7238   45.0188 W1         2 LUT     -0.333362
    158 C20        71.8411   62.7453   41.1324 W2         2 LUT     -0.323439
    159 C21        85.8356   64.7562   35.1288 Z1         2 LUT      0.406104
    160 C22        86.4354   64.0579   33.8467 Z2         2 LUT     -0.404965
    161 C23        86.6961   65.0180   32.6606 Z3         2 LUT      0.391255
    162 O23        87.0800   64.2029   31.5923 S1         2 LUT     -0.528210
    163 C24        85.5355   65.9449   32.4462 W6         2 LUT     -0.258361
    164 C25        84.5269   66.2531   33.3124 Z5         2 LUT      0.133546
    165 C26        84.4327   65.4817   34.6328 W8         2 LUT     -0.147008
    166 C27        83.8015   66.1963   35.7225 Z7         2 LUT      0.023843
    167 C28        82.7593   65.6403   36.3438 Z8         2 LUT     -0.216987
    168 C29        82.0484   66.1464   37.5044 Z9         2 LUT      0.206524
    169 C30        80.8872   65.5008   37.9072 Y1         2 LUT     -0.215556
    170 C31        80.0453   65.8909   39.0009 Y2         2 LUT      0.025142
    171 C32        78.9521   65.2159   39.4470 Y3         2 LUT     -0.212209
    172 C33        78.1190   65.3231   40.6208 Y4         2 LUT      0.240937
    173 C34        76.9978   64.5274   40.5914 Y5         2 LUT     -0.218862
    174 C35        75.9525   64.4633   41.5022 Y6         2 LUT     -0.023547
    175 C36        86.7041   65.8429   35.8071 Y7         2 LUT     -0.393485
    176 C37        85.6980   63.6079   36.1722 Y7         2 LUT     -0.393485
    177 C38        83.4141   67.1669   32.9105 Y9         2 LUT     -0.387526
    178 C39        82.5214   67.5408   38.0948 W1         2 LUT     -0.322618
    179 C40        78.3976   66.2833   41.7303 W2         2 LUT     -0.358472
    180 H403       77.9014   65.9884   42.6481 R7         2 LUT      0.097720
    181 H402       79.4707   66.1618   41.9904 R7         2 LUT      0.097720
    182 H401       78.2157   67.3174   41.5307 R7         2 LUT      0.097720
    183 H393       81.8353   68.0402   38.8372 R4         2 LUT      0.082505
    184 H392       83.5034   67.5138   38.6298 R4         2 LUT      0.082505
    185 H391       82.6876   68.2616   37.2818 R4         2 LUT      0.082505
    186 H383       83.6293   67.6637   31.9794 R1         2 LUT      0.104030
    187 H382       82.5558   66.5319   32.8687 R1         2 LUT      0.104030
    188 H381       83.2556   68.0437   33.5408 R1         2 LUT      0.104030
    189 H373       85.3755   64.0030   37.1518 T4         2 LUT      0.089537
    190 H372       85.0126   62.7580   35.8449 T4         2 LUT      0.089537
    191 H371       86.5920   62.8805   36.3236 T4         2 LUT      0.089537
    192 H363       87.7423   65.6095   35.9469 T4         2 LUT      0.089537
    193 H362       86.6940   66.8341   35.3326 T4         2 LUT      0.089537
    194 H361       86.2535   66.0530   36.7631 T4         2 LUT      0.089537
    195 H222       87.3019   63.4548   34.2031 U2         2 LUT      0.127376
    196 H221       85.6687   63.3191   33.5697 U2         2 LUT      0.127376
    197 H203       72.1293   61.6406   41.1145 R7         2 LUT      0.087068
    198 H202       70.7990   62.7443   40.9844 R7         2 LUT      0.087068
    199 H201       72.3016   63.1382   40.2397 R7         2 LUT      0.087068
    200 H193       68.6297   60.7270   43.9906 R4         2 LUT      0.089716
    201 H192       68.4203   59.7318   45.3717 R4         2 LUT      0.089716
    202 H191       67.1253   60.7110   44.8710 R4         2 LUT      0.089716
    203 H183       66.1440   63.6245   47.5845 R1         2 LUT      0.094572
    204 H182       64.7503   63.8790   48.6873 R1         2 LUT      0.094572
    205 H181       66.1936   64.9514   48.6849 R1         2 LUT      0.094572
    206 H173       68.1461   63.0348   51.9952 T4         2 LUT      0.093752
    207 H172       68.5980   61.4557   52.4857 T4         2 LUT      0.093752
    208 H171       69.3884   62.1592   51.1955 T4         2 LUT      0.093752
    209 H163       68.0713   59.2357   51.4025 T4         2 LUT      0.093752
    210 H162       67.4292   59.1482   49.7910 T4         2 LUT      0.093752
    211 H161       68.9945   59.8048   50.1232 T4         2 LUT      0.093752
    212 HO3        65.9144   62.6998   53.6685 Q1         2 LUT      0.300121
    213 H8         68.6843   63.2437   47.4737 U7         2 LUT      0.080784
    214 H7         67.6191   60.5133   47.9303 U6         2 LUT      0.042190
    215 H42        64.9748   64.2847   50.8600 U5         2 LUT      0.145166
    216 H41        66.4831   64.2518   51.4727 U5         2 LUT      0.145166
    217 H35        76.0217   64.9505   42.4310 T3         2 LUT      0.077919
    218 H34        76.9209   63.7990   39.7673 T2         2 LUT      0.073626
    219 H32        78.7188   64.3758   38.6732 T1         2 LUT      0.092510
    220 H31        80.3589   66.7994   39.5484 U9         2 LUT      0.070048
    221 H30        80.5539   64.6346   37.3230 U8         2 LUT      0.085442
    222 H3         64.2661   62.3813   51.3692 U3         2 LUT     -0.031596
    223 H28        82.2350   64.7615   35.8967 U7         2 LUT      0.084728
    224 H27        84.3542   67.0845   36.0552 U6         2 LUT      0.087291
    225 H26        83.7525   64.6252   34.3939 Q6         2 LUT      0.075325
    226 H24        85.6064   66.3895   31.4938 Q5         2 LUT      0.094482
    227 H23        87.5890   65.7121   32.8288 U3         2 LUT     -0.024869
    228 H22        65.4862   60.6096   50.6055 U2         2 LUT      0.127376
    229 H21        66.1296   60.4818   52.2344 U2         2 LUT      0.127376
    230 H15        74.4954   63.4221   40.2756 T3         2 LUT      0.093200
    231 H14        74.0494   64.3481   43.2861 T2         2 LUT      0.068865
    232 H12        72.0325   64.0499   44.4357 T1         2 LUT      0.095507
    233 H11        70.1552   62.0977   43.1828 U9         2 LUT      0.068930
    234 H10        70.1694   63.5255   45.9637 U8         2 LUT      0.083911
    235 H1         87.2465   64.7534   30.8089 Q1         2 LUT      0.297311
@<TRIPOS>BOND
    1     6     1 1
    2     7     2 1
    3     8     3 1
    4     9     4 1
    5    11     4 1
    6    12     6 1
    7    13     9 1
    8    16     9 1
    9    25     5 1
   10    25    16 1
   11    26    10 1
   12    26    17 1
   13    27    18 1
   14    28    14 1
   15    28    19 1
   16    29    12 1
   17    30    13 1
   18    31    24 1
   19    32     1 1
   20    32    25 1
   21    33    21 1
   22    33    26 1
   23    34    22 1
   24    34    27 1
   25    35    23 1
   26    35    28 1
   27    36    12 1
   28    36    24 1
   29    37    13 1
   30    37    15 1
   31    38    31 1
   32    39    20 1
   33    39    32 1
   34    40     2 1
   35    40    33 1
   36    41     3 1
   37    41    34 1
   38    42     4 1
   39    42    35 1
   40    43    38 1
   41    44     5 1
   42    44    17 1
   43    44    39 1
   44    45    10 1
   45    45    18 1
   46    45    40 1
   47    46    19 1
   48    46    41 1
   49    47    14 1
   50    47    16 1
   51    47    42 1
   52    48    38 1
   53    49    48 1
   54    50    49 1
   55    51    50 1
   56    52    51 1
   57    53    51 1
   58    54    53 1
   59    55    54 1
   60    56    55 1
   61    57    56 1
   62    58    56 1
   63    59    58 1
   64    60    59 1
   65    61    60 1
   66    62    61 1
   67    63    61 1
   68    64    27 1
   69    64    46 1
   70    65     5 1
   71    65    10 1
   72    65    64 1
   73    65    14 1
   74    66    23 1
   75    67    23 1
   76    68    23 1
   77    69    22 1
   78    70    22 1
   79    71    22 1
   80    72    21 1
   81    73    21 1
   82    74    21 1
   83    75    20 1
   84    76    20 1
   85    77    20 1
   86    78    15 1
   87    79    15 1
   88    80    15 1
   89    81     8 1
   90    82     8 1
   91    83     8 1
   92    84     7 1
   93    85     7 1
   94    86     6 1
   95    87     6 1
   96    88     3 1
   97    89     3 1
   98    90     1 1
   99    91     1 1
  100    92    63 1
  101    93    63 1
  102    94    63 1
  103    95    62 1
  104    96    62 1
  105    97    62 1
  106    98    60 1
  107    99    60 1
  108   100    59 1
  109   101    59 1
  110   102    58 1
  111   103    58 1
  112   104    57 1
  113   105    57 1
  114   106    57 1
  115   107    55 1
  116   108    55 1
  117   109    54 1
  118   110    54 1
  119   111    53 1
  120   112    53 1
  121   113    19 1
  122   114    18 1
  123   115    17 1
  124   116     9 1
  125   117     2 1
  126   118    52 1
  127   119    52 1
  128   120    52 1
  129   121    51 1
  130   122    50 1
  131   123    50 1
  132   124    49 1
  133   125    49 1
  134   126    48 1
  135   127    48 1
  136   128    43 1
  137   129    43 1
  138   130    43 1
  139   131    39 1
  140   132    32 1
  141   133    31 1
  142   134    61 1
  143   135    56 1
  144   136    24 1
  145   137    24 1
  146   139   138 1
  147   140   139 1
  148   141   140 1
  149   142   140 1
  150   143   142 1
  151   144   138 1
  152   144   143 1
  153   145   144 1
  154   146   145 1
  155   147   146 1
  156   148   147 1
  157   149   148 1
  158   150   149 1
  159   151   150 1
  160   152   151 1
  161   153   152 1
  162   154   138 1
  163   155   138 1
  164   156   143 1
  165   157   147 1
  166   158   151 1
  167   160   159 1
  168   161   160 1
  169   162   161 1
  170   163   161 1
  171   164   163 1
  172   165   159 1
  173   165   164 1
  174   166   165 1
  175   167   166 1
  176   168   167 1
  177   169   168 1
  178   170   169 1
  179   171   170 1
  180   172   171 1
  181   173   172 1
  182   174   153 1
  183   174   173 1
  184   175   159 1
  185   176   159 1
  186   177   164 1
  187   178   168 1
  188   179   172 1
  189   180   179 1
  190   181   179 1
  191   182   179 1
  192   183   178 1
  193   184   178 1
  194   185   178 1
  195   186   177 1
  196   187   177 1
  197   188   177 1
  198   189   176 1
  199   190   176 1
  200   191   176 1
  201   192   175 1
  202   193   175 1
  203   194   175 1
  204   195   160 1
  205   196   160 1
  206   197   158 1
  207   198   158 1
  208   199   158 1
  209   200   157 1
  210   201   157 1
  211   202   157 1
  212   203   156 1
  213   204   156 1
  214   205   156 1
  215   206   155 1
  216   207   155 1
  217   208   155 1
  218   209   154 1
  219   210   154 1
  220   211   154 1
  221   212   141 1
  222   213   146 1
  223   214   145 1
  224   215   142 1
  225   216   142 1
  226   217   174 1
  227   218   173 1
  228   219   171 1
  229   220   170 1
  230   221   169 1
  231   222   140 1
  232   223   167 1
  233   224   166 1
  234   225   165 1
  235   226   163 1
  236   227   161 1
  237   228   139 1
  238   229   139 1
  239   230   153 1
  240   231   152 1
  241   232   150 1
  242   233   149 1
  243   234   148 1
  244   235   162 1
  245   65    153 1
  246   65    174 1
@<TRIPOS>SUBSTRUCTURE
      1 CLA               1 ****               0 ****  **** 
      2 LUT             138 ****               0 ****  **** 
