@<TRIPOS>MOLECULE
Cpptraj generated mol2 file.
  235   246     2     0     0
SMALL
USER_CHARGES


@<TRIPOS>ATOM
      1 CAA        78.8924   58.8999   33.2710 a2         1 CLA     -0.055900
      2 CAB        79.7398   62.0283   42.4598 c8         1 CLA     -0.148500
      3 CAC        72.3559   58.4074   42.1437 a2         1 CLA     -0.012600
      4 CAD        74.3450   57.1922   34.3363 ck         1 CLA      0.398800
      5 NA         78.1245   58.9577   36.7955 ns         1 CLA     -0.225500
      6 CBA        80.0657   58.6569   32.2422 a2         1 CLA     -0.135000
      7 CBB        80.9219   61.7828   43.0244 c0         1 CLA     -0.395200
      8 CBC        72.1939   56.9069   42.0137 a3         1 CLA     -0.037700
      9 CBD        75.9436   57.3790   34.1540 a1         1 CLA     -0.053900
     10 NB         78.1964   60.3211   39.4831 nm         1 CLA     -0.295700
     11 OBD        73.5579   56.6721   33.5728 o2         1 CLA     -0.494600
     12 CGA        80.3336   57.1580   31.9060 c4         1 CLA      0.827000
     13 CGD        76.5464   56.0994   33.5026 c4         1 CLA      0.655300
     14 ND         75.1823   58.4309   37.4781 nm         1 CLA     -0.291600
     15 CED        75.9715   53.7524   33.0967 a3         1 CLA      0.005400
     16 CHA        76.5263   57.8612   35.3952 cs         1 CLA     -0.123800
     17 CHB        79.9754   60.3631   37.7285 aa         1 CLA     -0.291900
     18 CHC        77.0434   60.5111   41.6812 aa         1 CLA     -0.090400
     19 CHD        73.4011   58.4326   39.1506 aa         1 CLA     -0.052000
     20 CMA        81.4233   58.2212   35.8644 a3         1 CLA     -0.230700
     21 CMB        81.5859   61.8769   39.8207 a3         1 CLA     -0.180800
     22 CMC        74.6915   60.0704   43.7708 a3         1 CLA     -0.134000
     23 CMD        71.7505   57.2244   36.6238 a3         1 CLA     -0.141100
     24 C1         81.1486   55.0888   32.9786 a2         1 CLA      0.023000
     25 C1A        77.8558   58.3198   35.6756 ac         1 CLA     -0.015100
     26 C1B        79.4388   60.5858   39.0330 cr         1 CLA      0.054700
     27 C1C        75.8476   59.8471   41.4204 cn         1 CLA     -0.005600
     28 C1D        73.8880   58.2057   37.8354 ap         1 CLA     -0.047300
     29 O1A        80.0186   56.5262   30.9473 o2         1 CLA     -0.610800
     30 O1D        77.3551   56.1213   32.5423 o2         1 CLA     -0.558200
     31 C2         81.7209   54.5248   34.2821 c8         1 CLA     -0.325100
     32 C2A        79.0408   58.3179   34.7235 a1         1 CLA      0.098600
     33 C2B        80.1505   61.3823   40.0213 cb         1 CLA      0.088500
     34 C2C        74.7313   59.5566   42.3106 cb         1 CLA      0.053700
     35 C2D        73.1703   57.7343   36.6983 cb         1 CLA      0.058900
     36 O2A        81.0021   56.5678   32.9652 o1         1 CLA     -0.437200
     37 O2D        75.8975   54.8940   33.9355 o1         1 CLA     -0.357600
     38 C3         82.8081   53.7152   34.3331 c5         1 CLA      0.031200
     39 C3A        80.1295   59.0557   35.5848 a1         1 CLA      0.166800
     40 C3B        79.3926   61.4065   41.1958 cb         1 CLA      0.035000
     41 C3C        73.7182   58.9415   41.5740 cb         1 CLA     -0.089900
     42 C3D        74.0841   57.6323   35.6533 cb         1 CLA     -0.035900
     43 C4         82.6574   52.1979   34.4301 a3         1 CLA     -0.053300
     44 C4A        79.3798   59.5159   36.7712 ac         1 CLA      0.001800
     45 C4B        78.1805   60.7263   40.8104 cn         1 CLA     -0.020900
     46 C4C        74.1520   58.9105   40.2012 cr         1 CLA     -0.044400
     47 C4D        75.3658   57.9232   36.2653 c6         1 CLA     -0.046000
     48 C5         84.1791   54.1678   34.1956 a2         1 CLA     -0.070400
     49 C6         84.5270   55.5884   34.7261 a2         1 CLA      0.043900
     50 C7         84.5789   55.6051   36.2412 a2         1 CLA     -0.150000
     51 C8         84.5111   56.9859   36.9344 a1         1 CLA      0.064200
     52 C9         85.6117   57.9002   36.3967 a3         1 CLA     -0.259300
     53 C10        84.6900   56.8179   38.4748 a2         1 CLA     -0.071900
     54 C11        84.6585   58.0834   39.3219 a2         1 CLA      0.014500
     55 C12        85.0101   57.5245   40.7510 a2         1 CLA     -0.112100
     56 C13        85.1856   58.6936   41.7801 a1         1 CLA      0.089200
     57 C14        86.4510   59.4350   41.5969 a3         1 CLA     -0.239100
     58 C15        85.1617   58.1888   43.3052 a2         1 CLA     -0.102200
     59 C16        83.8494   57.7711   43.9006 a2         1 CLA      0.023900
     60 C17        83.6091   58.0972   45.3617 a2         1 CLA     -0.105700
     61 C18        84.6898   57.5127   46.3271 a1         1 CLA      0.206800
     62 C19        84.2914   58.0562   47.7374 a3         1 CLA     -0.280100
     63 C20        84.7686   55.9535   46.3527 a3         1 CLA     -0.280100
     64 NC         75.4622   59.4468   40.1444 nx         1 CLA     -0.309200
     65 MG         76.6727   59.4491   38.4670 mg         1 CLA      0.895000
     66 HMD3       71.8823   56.1993   37.0058 dc         1 CLA      0.064300
     67 HMD2       71.1465   57.7010   37.3573 dc         1 CLA      0.064300
     68 HMD1       71.4598   57.2414   35.5589 dc         1 CLA      0.064300
     69 HMC3       75.3127   60.8931   43.9168 dc         1 CLA      0.052100
     70 HMC2       73.7338   60.3445   44.0322 dc         1 CLA      0.052100
     71 HMC1       75.0977   59.2278   44.2770 dc         1 CLA      0.052100
     72 HMB3       82.4474   61.1738   39.9647 dc         1 CLA      0.063600
     73 HMB2       81.6352   62.2419   38.8347 dc         1 CLA      0.063600
     74 HMB1       81.8167   62.6908   40.5188 dc         1 CLA      0.063600
     75 HMA3       82.1394   58.1618   34.9831 dc         1 CLA      0.058300
     76 HMA2       81.9119   58.6282   36.7347 dc         1 CLA      0.058300
     77 HMA1       81.1857   57.2171   36.0832 dc         1 CLA      0.058300
     78 HED3       77.0230   53.5039   32.8647 dc         1 CLA      0.079300
     79 HED2       75.5760   52.9375   33.6028 dc         1 CLA      0.079300
     80 HED1       75.5383   54.0211   32.1306 dc         1 CLA      0.079300
     81 HBC3       72.5835   56.4742   41.0619 dc         1 CLA      0.016300
     82 HBC2       72.8587   56.5999   42.8437 dc         1 CLA      0.016300
     83 HBC1       71.1645   56.7357   42.1850 dc         1 CLA      0.016300
     84 HBB2       81.2726   62.4189   43.8742 da         1 CLA      0.183000
     85 HBB1       81.6919   61.1633   42.5566 da         1 CLA      0.183000
     86 HBA2       79.8155   59.2043   31.3537 dc         1 CLA      0.029400
     87 HBA1       80.9339   59.1413   32.7561 dc         1 CLA      0.029400
     88 HAC2       72.3189   58.7527   43.2428 dc         1 CLA      0.029300
     89 HAC1       71.5906   58.9069   41.6097 dc         1 CLA      0.029300
     90 HAA2       78.0265   58.3822   32.8000 dc         1 CLA      0.028700
     91 HAA1       78.6247   59.9717   33.5017 dc         1 CLA      0.028700
     92 H203       85.3297   55.5811   47.2180 dc         1 CLA      0.065600
     93 H202       83.7677   55.5653   46.5819 dc         1 CLA      0.065600
     94 H201       85.0364   55.5142   45.3925 dc         1 CLA      0.065600
     95 H193       84.9857   57.8598   48.5265 dc         1 CLA      0.065600
     96 H192       84.1709   59.1034   47.5962 dc         1 CLA      0.065600
     97 H191       83.2168   57.7388   47.9707 dc         1 CLA      0.065600
     98 H172       83.6539   59.1615   45.5443 dc         1 CLA      0.027600
     99 H171       82.6633   57.6346   45.5723 dc         1 CLA      0.027600
    100 H162       82.9513   58.2188   43.3300 dc         1 CLA      0.002900
    101 H161       83.7673   56.6660   43.8660 dc         1 CLA      0.002900
    102 H152       85.8066   57.2961   43.3753 dc         1 CLA      0.029100
    103 H151       85.5789   58.9451   44.0421 dc         1 CLA      0.029100
    104 H143       86.5993   59.8913   40.6579 dc         1 CLA      0.063600
    105 H142       86.4767   60.3339   42.2516 dc         1 CLA      0.063600
    106 H141       87.2963   58.7722   41.8535 dc         1 CLA      0.063600
    107 H122       84.2117   56.7757   41.0072 dc         1 CLA      0.032500
    108 H121       85.9675   56.9645   40.8825 dc         1 CLA      0.032500
    109 H112       85.3921   58.8084   38.9778 dc         1 CLA      0.006600
    110 H111       83.6319   58.4509   39.3130 dc         1 CLA      0.006600
    111 H102       83.8305   56.2169   38.7506 dc         1 CLA      0.024100
    112 H101       85.5921   56.1096   38.5698 dc         1 CLA      0.024100
    113 HHD        72.3771   58.1374   39.3092 da         1 CLA      0.174300
    114 HHC        77.2426   60.8323   42.7203 da         1 CLA      0.136800
    115 HHB        80.9136   60.8004   37.2791 da         1 CLA      0.138300
    116 HBD        75.9194   58.1772   33.3976 dc         1 CLA      0.107700
    117 HAB        79.0419   62.7133   42.9385 da         1 CLA      0.155200
    118 H93        86.5971   57.5393   36.6909 dc         1 CLA      0.069500
    119 H92        85.5497   57.8831   35.2829 dc         1 CLA      0.069500
    120 H91        85.5386   58.9797   36.7793 dc         1 CLA      0.069500
    121 H8         83.6537   57.6005   36.6314 dc         1 CLA      0.029300
    122 H72        83.7939   55.0305   36.5966 dc         1 CLA      0.044400
    123 H71        85.4656   55.0627   36.5214 dc         1 CLA      0.044400
    124 H62        85.4983   55.8394   34.3737 dc         1 CLA      0.015600
    125 H61        83.8219   56.3065   34.3996 dc         1 CLA      0.015600
    126 H52        84.9254   53.5047   34.7799 dc         1 CLA      0.033200
    127 H51        84.4952   54.0005   33.1580 dc         1 CLA      0.033200
    128 H43        83.4557   51.9157   35.0518 dc         1 CLA      0.037000
    129 H42        81.7733   51.9925   35.0242 dc         1 CLA      0.037000
    130 H41        82.6356   51.6718   33.4925 dc         1 CLA      0.037000
    131 H3A        80.4286   59.9739   35.0872 dc         1 CLA      0.041100
    132 H2A        79.2592   57.2274   34.6028 dc         1 CLA      0.083100
    133 H2         81.3411   54.8947   35.1896 da         1 CLA      0.180900
    134 H18        85.7005   57.8596   46.0724 dc         1 CLA     -0.003900
    135 H13        84.3868   59.3895   41.7075 dc         1 CLA      0.019700
    136 H12        80.1891   54.6480   32.9278 dc         1 CLA      0.120400
    137 H11        81.8079   54.8667   32.1384 dc         1 CLA      0.120400
    138 C1         68.7467   61.5718   49.4561 Z1         2 LUT      0.509236
    139 C2         68.4406   62.3557   50.7306 Z2         2 LUT     -0.434695
    140 C3         66.9926   62.8507   50.6974 Z3         2 LUT      0.437453
    141 O3         66.7123   63.6002   51.8800 S1         2 LUT     -0.547129
    142 C4         66.8093   63.7736   49.5661 Z4         2 LUT     -0.468603
    143 C5         67.4059   63.2465   48.2511 Z5         2 LUT      0.279246
    144 C6         68.1739   62.1274   48.1854 Z6         2 LUT     -0.305473
    145 C7         68.9205   61.6663   46.9516 Z7         2 LUT      0.069402
    146 C8         69.8254   62.4152   46.2695 Z8         2 LUT     -0.191631
    147 C9         70.6067   61.9098   45.0690 Z9         2 LUT      0.196698
    148 C10        71.6283   62.6680   44.5259 Y1         2 LUT     -0.208611
    149 C11        72.3173   62.4633   43.2771 Y2         2 LUT      0.030784
    150 C12        73.4988   63.1324   42.9832 Y3         2 LUT     -0.220316
    151 C13        74.3387   63.0725   41.7497 Y4         2 LUT      0.215937
    152 C14        75.4777   63.8535   41.7647 Y5         2 LUT     -0.185793
    153 C15        76.5529   64.0478   40.7774 Y6         2 LUT     -0.057835
    154 C16        67.9943   60.2757   49.6089 Y7         2 LUT     -0.405615
    155 C17        70.2813   61.3663   49.3920 Y7         2 LUT     -0.405615
    156 C18        67.0817   64.2133   47.2201 Y9         2 LUT     -0.369639
    157 C19        70.0112   60.7211   44.2662 W1         2 LUT     -0.333362
    158 C20        73.6726   62.5508   40.5519 W2         2 LUT     -0.323439
    159 C21        88.1555   65.7046   35.2279 Z1         2 LUT      0.406104
    160 C22        88.9761   65.4000   33.9628 Z2         2 LUT     -0.404965
    161 C23        88.9256   66.4622   32.7946 Z3         2 LUT      0.391255
    162 O23        89.6083   65.9874   31.5590 S1         2 LUT     -0.528210
    163 C24        87.5192   66.8656   32.5657 W6         2 LUT     -0.258361
    164 C25        86.5124   66.7825   33.4724 Z5         2 LUT      0.133546
    165 C26        86.6546   66.1357   34.8220 W8         2 LUT     -0.147008
    166 C27        85.9194   66.8161   35.9930 Z7         2 LUT      0.023843
    167 C28        84.9449   66.1893   36.7577 Z8         2 LUT     -0.216987
    168 C29        84.2958   66.6920   37.9539 Z9         2 LUT      0.206524
    169 C30        83.1844   65.9797   38.2933 Y1         2 LUT     -0.215556
    170 C31        82.2150   66.0476   39.3666 Y2         2 LUT      0.025142
    171 C32        80.9944   65.4254   39.4266 Y3         2 LUT     -0.212209
    172 C33        80.0369   65.4264   40.4821 Y4         2 LUT      0.240937
    173 C34        78.8593   64.7871   40.2845 Y5         2 LUT     -0.218862
    174 C35        77.5927   64.8110   41.0302 Y6         2 LUT     -0.023547
    175 C36        89.0198   66.7635   35.9013 Y7         2 LUT     -0.393485
    176 C37        88.2952   64.4208   36.0072 Y7         2 LUT     -0.393485
    177 C38        85.1313   67.3415   33.1435 Y9         2 LUT     -0.387526
    178 C39        84.9252   67.8176   38.7173 W1         2 LUT     -0.322618
    179 C40        80.4387   65.7770   41.9152 W2         2 LUT     -0.358472
    180 H403       81.4773   65.5942   42.2341 R7         2 LUT      0.097720
    181 H402       80.2477   66.8139   41.9412 R7         2 LUT      0.097720
    182 H401       79.7345   65.3715   42.6282 R7         2 LUT      0.097720
    183 H393       84.4151   68.1163   39.5969 R4         2 LUT      0.082505
    184 H392       85.9406   67.5010   38.9363 R4         2 LUT      0.082505
    185 H391       85.0453   68.7414   38.1281 R4         2 LUT      0.082505
    186 H383       84.3212   66.8102   33.6115 R1         2 LUT      0.104030
    187 H382       84.9914   68.4558   33.2436 R1         2 LUT      0.104030
    188 H381       84.9072   67.1036   32.0896 R1         2 LUT      0.104030
    189 H373       89.3554   64.2507   36.3106 T4         2 LUT      0.089537
    190 H372       87.7183   64.5238   36.9270 T4         2 LUT      0.089537
    191 H371       87.9734   63.5149   35.5585 T4         2 LUT      0.089537
    192 H363       88.7570   66.9259   36.9255 T4         2 LUT      0.089537
    193 H362       90.0413   66.4582   35.8722 T4         2 LUT      0.089537
    194 H361       88.8478   67.6991   35.3723 T4         2 LUT      0.089537
    195 H222       90.0741   65.2694   34.0996 U2         2 LUT      0.127376
    196 H221       88.6557   64.4930   33.4046 U2         2 LUT      0.127376
    197 H203       74.3901   62.4754   39.7296 R7         2 LUT      0.087068
    198 H202       73.2210   61.5285   40.6102 R7         2 LUT      0.087068
    199 H201       72.8805   63.2972   40.3374 R7         2 LUT      0.087068
    200 H193       69.2295   61.0266   43.6615 R4         2 LUT      0.089716
    201 H192       70.7717   60.3467   43.5760 R4         2 LUT      0.089716
    202 H191       69.6316   59.9061   44.8829 R4         2 LUT      0.089716
    203 H183       67.4457   63.8331   46.3058 R1         2 LUT      0.094572
    204 H182       65.9633   64.3220   47.1854 R1         2 LUT      0.094572
    205 H181       67.5071   65.1833   47.2868 R1         2 LUT      0.094572
    206 H173       70.5878   61.0347   50.4109 T4         2 LUT      0.093752
    207 H172       70.5990   60.6511   48.6601 T4         2 LUT      0.093752
    208 H171       70.8327   62.3112   49.1424 T4         2 LUT      0.093752
    209 H163       66.9300   60.3442   49.5300 T4         2 LUT      0.093752
    210 H162       68.3618   59.4848   48.9529 T4         2 LUT      0.093752
    211 H161       68.1151   59.8232   50.6273 T4         2 LUT      0.093752
    212 HO3        66.6024   63.0625   52.6528 Q1         2 LUT      0.300121
    213 H8         70.1392   63.4092   46.6068 U7         2 LUT      0.080784
    214 H7         68.5984   60.7301   46.5861 U6         2 LUT      0.042190
    215 H42        65.7813   64.0861   49.3858 U5         2 LUT      0.145166
    216 H41        67.2443   64.7218   49.9298 U5         2 LUT      0.145166
    217 H35        77.5647   65.4077   42.0082 T3         2 LUT      0.077919
    218 H34        78.8254   64.2365   39.3104 T2         2 LUT      0.073626
    219 H32        80.7555   64.8788   38.5573 T1         2 LUT      0.092510
    220 H31        82.3516   66.7281   40.2293 U9         2 LUT      0.070048
    221 H30        82.8073   65.2929   37.5191 U8         2 LUT      0.085442
    222 H3         66.2869   62.0211   50.6583 U3         2 LUT     -0.031596
    223 H28        84.4208   65.3446   36.2759 U7         2 LUT      0.084728
    224 H27        86.2433   67.8475   36.3407 U6         2 LUT      0.087291
    225 H26        86.1894   65.2037   34.6135 Q6         2 LUT      0.075325
    226 H24        87.1775   67.3048   31.6500 Q5         2 LUT      0.094482
    227 H23        89.4524   67.4430   33.0745 U3         2 LUT     -0.024869
    228 H22        68.5717   61.6809   51.6161 U2         2 LUT      0.127376
    229 H21        69.0290   63.2956   50.7160 U2         2 LUT      0.127376
    230 H15        76.6217   63.5409   39.8035 T3         2 LUT      0.093200
    231 H14        75.5940   64.5980   42.5183 T2         2 LUT      0.068865
    232 H12        73.9742   63.6576   43.7841 T1         2 LUT      0.095507
    233 H11        71.8947   61.7918   42.4839 U9         2 LUT      0.068930
    234 H10        71.9611   63.5096   45.1769 U8         2 LUT      0.083911
    235 H1         89.0298   65.3636   31.1053 Q1         2 LUT      0.297311
@<TRIPOS>BOND
    1     6     1 1
    2     7     2 1
    3     8     3 1
    4     9     4 1
    5    11     4 1
    6    12     6 1
    7    13     9 1
    8    16     9 1
    9    25     5 1
   10    25    16 1
   11    26    10 1
   12    26    17 1
   13    27    18 1
   14    28    14 1
   15    28    19 1
   16    29    12 1
   17    30    13 1
   18    31    24 1
   19    32     1 1
   20    32    25 1
   21    33    21 1
   22    33    26 1
   23    34    22 1
   24    34    27 1
   25    35    23 1
   26    35    28 1
   27    36    12 1
   28    36    24 1
   29    37    13 1
   30    37    15 1
   31    38    31 1
   32    39    20 1
   33    39    32 1
   34    40     2 1
   35    40    33 1
   36    41     3 1
   37    41    34 1
   38    42     4 1
   39    42    35 1
   40    43    38 1
   41    44     5 1
   42    44    17 1
   43    44    39 1
   44    45    10 1
   45    45    18 1
   46    45    40 1
   47    46    19 1
   48    46    41 1
   49    47    14 1
   50    47    16 1
   51    47    42 1
   52    48    38 1
   53    49    48 1
   54    50    49 1
   55    51    50 1
   56    52    51 1
   57    53    51 1
   58    54    53 1
   59    55    54 1
   60    56    55 1
   61    57    56 1
   62    58    56 1
   63    59    58 1
   64    60    59 1
   65    61    60 1
   66    62    61 1
   67    63    61 1
   68    64    27 1
   69    64    46 1
   70    65     5 1
   71    65    10 1
   72    65    64 1
   73    65    14 1
   74    66    23 1
   75    67    23 1
   76    68    23 1
   77    69    22 1
   78    70    22 1
   79    71    22 1
   80    72    21 1
   81    73    21 1
   82    74    21 1
   83    75    20 1
   84    76    20 1
   85    77    20 1
   86    78    15 1
   87    79    15 1
   88    80    15 1
   89    81     8 1
   90    82     8 1
   91    83     8 1
   92    84     7 1
   93    85     7 1
   94    86     6 1
   95    87     6 1
   96    88     3 1
   97    89     3 1
   98    90     1 1
   99    91     1 1
  100    92    63 1
  101    93    63 1
  102    94    63 1
  103    95    62 1
  104    96    62 1
  105    97    62 1
  106    98    60 1
  107    99    60 1
  108   100    59 1
  109   101    59 1
  110   102    58 1
  111   103    58 1
  112   104    57 1
  113   105    57 1
  114   106    57 1
  115   107    55 1
  116   108    55 1
  117   109    54 1
  118   110    54 1
  119   111    53 1
  120   112    53 1
  121   113    19 1
  122   114    18 1
  123   115    17 1
  124   116     9 1
  125   117     2 1
  126   118    52 1
  127   119    52 1
  128   120    52 1
  129   121    51 1
  130   122    50 1
  131   123    50 1
  132   124    49 1
  133   125    49 1
  134   126    48 1
  135   127    48 1
  136   128    43 1
  137   129    43 1
  138   130    43 1
  139   131    39 1
  140   132    32 1
  141   133    31 1
  142   134    61 1
  143   135    56 1
  144   136    24 1
  145   137    24 1
  146   139   138 1
  147   140   139 1
  148   141   140 1
  149   142   140 1
  150   143   142 1
  151   144   138 1
  152   144   143 1
  153   145   144 1
  154   146   145 1
  155   147   146 1
  156   148   147 1
  157   149   148 1
  158   150   149 1
  159   151   150 1
  160   152   151 1
  161   153   152 1
  162   154   138 1
  163   155   138 1
  164   156   143 1
  165   157   147 1
  166   158   151 1
  167   160   159 1
  168   161   160 1
  169   162   161 1
  170   163   161 1
  171   164   163 1
  172   165   159 1
  173   165   164 1
  174   166   165 1
  175   167   166 1
  176   168   167 1
  177   169   168 1
  178   170   169 1
  179   171   170 1
  180   172   171 1
  181   173   172 1
  182   174   153 1
  183   174   173 1
  184   175   159 1
  185   176   159 1
  186   177   164 1
  187   178   168 1
  188   179   172 1
  189   180   179 1
  190   181   179 1
  191   182   179 1
  192   183   178 1
  193   184   178 1
  194   185   178 1
  195   186   177 1
  196   187   177 1
  197   188   177 1
  198   189   176 1
  199   190   176 1
  200   191   176 1
  201   192   175 1
  202   193   175 1
  203   194   175 1
  204   195   160 1
  205   196   160 1
  206   197   158 1
  207   198   158 1
  208   199   158 1
  209   200   157 1
  210   201   157 1
  211   202   157 1
  212   203   156 1
  213   204   156 1
  214   205   156 1
  215   206   155 1
  216   207   155 1
  217   208   155 1
  218   209   154 1
  219   210   154 1
  220   211   154 1
  221   212   141 1
  222   213   146 1
  223   214   145 1
  224   215   142 1
  225   216   142 1
  226   217   174 1
  227   218   173 1
  228   219   171 1
  229   220   170 1
  230   221   169 1
  231   222   140 1
  232   223   167 1
  233   224   166 1
  234   225   165 1
  235   226   163 1
  236   227   161 1
  237   228   139 1
  238   229   139 1
  239   230   153 1
  240   231   152 1
  241   232   150 1
  242   233   149 1
  243   234   148 1
  244   235   162 1
  245   65    153 1
  246   65    174 1
@<TRIPOS>SUBSTRUCTURE
      1 CLA               1 ****               0 ****  **** 
      2 LUT             138 ****               0 ****  **** 
