@<TRIPOS>MOLECULE
Cpptraj generated mol2 file.
  235   246     2     0     0
SMALL
USER_CHARGES


@<TRIPOS>ATOM
      1 CAA        77.5312   58.8837   34.8340 a2         1 CLA     -0.055900
      2 CAB        77.3926   63.0526   43.4999 c8         1 CLA     -0.148500
      3 CAC        71.2997   57.6822   43.5597 a2         1 CLA     -0.012600
      4 CAD        73.9875   55.3986   36.4041 ck         1 CLA      0.398800
      5 NA         76.5908   59.1966   38.0283 ns         1 CLA     -0.225500
      6 CBA        78.7743   59.0467   33.8390 a2         1 CLA     -0.135000
      7 CBB        76.5073   63.5359   44.3583 c0         1 CLA     -0.395200
      8 CBC        71.5133   56.1552   43.4615 a3         1 CLA     -0.037700
      9 CBD        75.4481   55.9840   36.1143 a1         1 CLA     -0.053900
     10 NB         76.3017   60.8040   40.5844 nm         1 CLA     -0.295700
     11 OBD        73.4450   54.4815   35.8114 o2         1 CLA     -0.494600
     12 CGA        79.5062   57.7360   33.4550 c4         1 CLA      0.827000
     13 CGD        76.5864   55.0003   36.3116 c4         1 CLA      0.655300
     14 ND         74.0191   57.9195   38.8512 nm         1 CLA     -0.291600
     15 CED        77.0669   52.9059   37.5636 a3         1 CLA      0.005400
     16 CHA        75.5732   57.1921   37.0408 cs         1 CLA     -0.123800
     17 CHB        78.1902   60.7925   39.0242 aa         1 CLA     -0.291900
     18 CHC        75.0618   60.9412   42.7613 aa         1 CLA     -0.090400
     19 CHD        72.4243   57.4424   40.6849 aa         1 CLA     -0.052000
     20 CMA        79.9977   58.5769   37.7134 a3         1 CLA     -0.230700
     21 CMB        79.3499   62.8671   40.8784 a3         1 CLA     -0.180800
     22 CMC        73.1107   59.9146   45.0573 a3         1 CLA     -0.134000
     23 CMD        71.3644   55.2190   38.6848 a3         1 CLA     -0.141100
     24 C1         80.5924   55.7796   34.3158 a2         1 CLA      0.023000
     25 C1A        76.6258   58.1985   37.1361 ac         1 CLA     -0.015100
     26 C1B        77.5008   61.3311   40.1408 cr         1 CLA      0.054700
     27 C1C        74.1259   59.9803   42.5241 cn         1 CLA     -0.005600
     28 C1D        72.8524   57.2604   39.3264 ap         1 CLA     -0.047300
     29 O1A        79.6217   57.3214   32.2799 o2         1 CLA     -0.610800
     30 O1D        77.5554   54.6845   35.5501 o2         1 CLA     -0.558200
     31 C2         80.9007   55.1893   35.6614 c8         1 CLA     -0.325100
     32 C2A        77.8338   58.3775   36.2436 a1         1 CLA      0.098600
     33 C2B        77.9793   62.2891   41.1171 cb         1 CLA      0.088500
     34 C2C        73.1411   59.5243   43.5460 cb         1 CLA      0.053700
     35 C2D        72.4237   56.2896   38.4408 cb         1 CLA      0.058900
     36 O2A        80.0168   57.1371   34.5163 o1         1 CLA     -0.437200
     37 O2D        76.4455   54.2456   37.4503 o1         1 CLA     -0.357600
     38 C3         82.0969   55.0643   36.3266 c5         1 CLA      0.031200
     39 C3A        78.7822   59.2921   37.0780 a1         1 CLA      0.166800
     40 C3B        77.1131   62.3602   42.2423 cb         1 CLA      0.035000
     41 C3C        72.3927   58.4983   42.9700 cb         1 CLA     -0.089900
     42 C3D        73.4669   56.1686   37.5151 cb         1 CLA     -0.035900
     43 C4         83.1373   54.1033   35.7960 a3         1 CLA     -0.053300
     44 C4A        77.7909   59.7586   38.1166 ac         1 CLA      0.001800
     45 C4B        76.0747   61.3483   41.9333 cn         1 CLA     -0.020900
     46 C4C        72.9640   58.4073   41.5588 cr         1 CLA     -0.044400
     47 C4D        74.4081   57.1911   37.8022 c6         1 CLA     -0.046000
     48 C5         82.5835   56.0576   37.4203 a2         1 CLA     -0.070400
     49 C6         83.6664   55.6665   38.3751 a2         1 CLA      0.043900
     50 C7         83.6413   56.6213   39.5005 a2         1 CLA     -0.150000
     51 C8         83.9162   58.1414   39.2030 a1         1 CLA      0.064200
     52 C9         85.2401   58.3037   38.2609 a3         1 CLA     -0.259300
     53 C10        83.9323   59.0720   40.4215 a2         1 CLA     -0.071900
     54 C11        82.7366   58.9563   41.4241 a2         1 CLA      0.014500
     55 C12        82.3904   60.1148   42.3232 a2         1 CLA     -0.112100
     56 C13        83.3736   60.5387   43.5359 a1         1 CLA      0.089200
     57 C14        83.5718   59.3699   44.5211 a3         1 CLA     -0.239100
     58 C15        82.8998   61.8025   44.3265 a2         1 CLA     -0.102200
     59 C16        83.8310   62.2944   45.4344 a2         1 CLA      0.023900
     60 C17        83.2397   63.5193   46.2759 a2         1 CLA     -0.105700
     61 C18        84.2060   64.0094   47.3490 a1         1 CLA      0.206800
     62 C19        83.7249   65.2476   48.1602 a3         1 CLA     -0.280100
     63 C20        84.7336   62.9066   48.3157 a3         1 CLA     -0.280100
     64 NC         73.9410   59.3120   41.3717 nx         1 CLA     -0.309200
     65 MG         75.1902   59.3769   39.6384 mg         1 CLA      0.895000
     66 HMD3       70.3776   55.6692   38.4865 dc         1 CLA      0.064300
     67 HMD2       71.5555   54.4011   37.9691 dc         1 CLA      0.064300
     68 HMD1       71.5306   54.8945   39.6435 dc         1 CLA      0.064300
     69 HMC3       73.3910   60.9538   45.0899 dc         1 CLA      0.052100
     70 HMC2       72.1696   60.0701   45.5421 dc         1 CLA      0.052100
     71 HMC1       73.7937   59.3321   45.6980 dc         1 CLA      0.052100
     72 HMB3       79.3979   63.5007   39.9844 dc         1 CLA      0.063600
     73 HMB2       79.6367   63.4946   41.7242 dc         1 CLA      0.063600
     74 HMB1       80.1261   62.0985   40.9388 dc         1 CLA      0.063600
     75 HMA3       79.6105   57.8036   38.3925 dc         1 CLA      0.058300
     76 HMA2       80.6789   58.2441   36.9641 dc         1 CLA      0.058300
     77 HMA1       80.5138   59.2646   38.2782 dc         1 CLA      0.058300
     78 HED3       76.6193   52.2835   36.8040 dc         1 CLA      0.079300
     79 HED2       78.1020   52.8889   37.2684 dc         1 CLA      0.079300
     80 HED1       77.0212   52.4820   38.5379 dc         1 CLA      0.079300
     81 HBC3       71.2370   55.5922   44.4060 dc         1 CLA      0.016300
     82 HBC2       70.8758   55.7334   42.6576 dc         1 CLA      0.016300
     83 HBC1       72.5341   55.9950   43.2751 dc         1 CLA      0.016300
     84 HBB2       76.7370   64.0627   45.2816 da         1 CLA      0.183000
     85 HBB1       75.3925   63.4359   44.2436 da         1 CLA      0.183000
     86 HBA2       78.5805   59.5910   32.9328 dc         1 CLA      0.029400
     87 HBA1       79.5068   59.5731   34.4518 dc         1 CLA      0.029400
     88 HAC2       71.1660   57.8405   44.6492 dc         1 CLA      0.029300
     89 HAC1       70.3968   57.9922   43.1006 dc         1 CLA      0.029300
     90 HAA2       76.8141   58.2295   34.2795 dc         1 CLA      0.028700
     91 HAA1       77.0817   59.8914   34.9688 dc         1 CLA      0.028700
     92 H203       85.2620   62.1282   47.7589 dc         1 CLA      0.065600
     93 H202       85.3588   63.3337   49.1402 dc         1 CLA      0.065600
     94 H201       83.8970   62.4255   48.8172 dc         1 CLA      0.065600
     95 H193       83.8228   66.0744   47.4841 dc         1 CLA      0.065600
     96 H192       82.7299   65.0752   48.5100 dc         1 CLA      0.065600
     97 H191       84.3595   65.4298   49.0358 dc         1 CLA      0.065600
     98 H172       83.0638   64.2477   45.4863 dc         1 CLA      0.027600
     99 H171       82.2507   63.2079   46.6684 dc         1 CLA      0.027600
    100 H162       83.9605   61.4743   46.1102 dc         1 CLA      0.002900
    101 H161       84.8350   62.7196   45.1263 dc         1 CLA      0.002900
    102 H152       82.7252   62.6156   43.6095 dc         1 CLA      0.029100
    103 H151       81.9865   61.5847   44.8717 dc         1 CLA      0.029100
    104 H143       83.9466   58.5136   43.9385 dc         1 CLA      0.063600
    105 H142       84.4444   59.4727   45.2172 dc         1 CLA      0.063600
    106 H141       82.6574   59.0880   44.9795 dc         1 CLA      0.063600
    107 H122       82.2071   61.0015   41.7944 dc         1 CLA      0.032500
    108 H121       81.4432   59.9268   42.8955 dc         1 CLA      0.032500
    109 H112       81.8216   58.7740   40.8851 dc         1 CLA      0.006600
    110 H111       82.9206   58.0661   42.0609 dc         1 CLA      0.006600
    111 H102       84.7951   58.7604   41.0222 dc         1 CLA      0.024100
    112 H101       84.0607   60.0566   40.0783 dc         1 CLA      0.024100
    113 HHD        71.6267   56.8287   40.9947 da         1 CLA      0.174300
    114 HHC        75.1926   61.5009   43.7067 da         1 CLA      0.136800
    115 HHB        79.2208   60.9866   38.8240 da         1 CLA      0.138300
    116 HBD        75.5602   56.2116   35.0569 dc         1 CLA      0.107700
    117 HAB        78.4506   63.2320   43.7251 da         1 CLA      0.155200
    118 H93        85.4152   59.3732   38.1110 dc         1 CLA      0.069500
    119 H92        86.0692   57.8319   38.7938 dc         1 CLA      0.069500
    120 H91        85.1583   57.9552   37.2268 dc         1 CLA      0.069500
    121 H8         83.1226   58.5335   38.6589 dc         1 CLA      0.029300
    122 H72        82.6445   56.5410   39.9692 dc         1 CLA      0.044400
    123 H71        84.3945   56.2507   40.1731 dc         1 CLA      0.044400
    124 H62        83.5112   54.6167   38.6123 dc         1 CLA      0.015600
    125 H61        84.6680   55.6163   37.8794 dc         1 CLA      0.015600
    126 H52        82.8210   57.0434   36.8919 dc         1 CLA      0.033200
    127 H51        81.6507   56.1804   37.9658 dc         1 CLA      0.033200
    128 H43        82.7240   53.4960   34.9388 dc         1 CLA      0.037000
    129 H42        84.0112   54.7033   35.5669 dc         1 CLA      0.037000
    130 H41        83.5074   53.3258   36.5725 dc         1 CLA      0.037000
    131 H3A        79.1367   60.1201   36.3976 dc         1 CLA      0.041100
    132 H2A        78.1740   57.3443   36.1987 dc         1 CLA      0.083100
    133 H2         80.0365   54.6263   36.0469 da         1 CLA      0.180900
    134 H18        85.1873   64.4200   46.9743 dc         1 CLA     -0.003900
    135 H13        84.3361   60.8194   43.1901 dc         1 CLA      0.019700
    136 H12        79.9864   55.0584   33.7705 dc         1 CLA      0.120400
    137 H11        81.4880   55.9249   33.6892 dc         1 CLA      0.120400
    138 C1         67.6090   61.7171   50.9133 Z1         2 LUT      0.509236
    139 C2         67.5642   63.0297   51.7135 Z2         2 LUT     -0.434695
    140 C3         66.1546   63.6973   51.9360 Z3         2 LUT      0.437453
    141 O3         66.3382   65.0738   52.4131 S1         2 LUT     -0.547129
    142 C4         65.3597   63.5932   50.6125 Z4         2 LUT     -0.468603
    143 C5         66.1667   63.1561   49.4380 Z5         2 LUT      0.279246
    144 C6         67.1584   62.2326   49.4617 Z6         2 LUT     -0.305473
    145 C7         68.0239   61.8378   48.3329 Z7         2 LUT      0.069402
    146 C8         68.7668   62.6200   47.4961 Z8         2 LUT     -0.191631
    147 C9         69.4352   62.2292   46.2268 Z9         2 LUT      0.196698
    148 C10        70.2410   63.1637   45.6531 Y1         2 LUT     -0.208611
    149 C11        70.9914   63.0121   44.4001 Y2         2 LUT      0.030784
    150 C12        71.7388   63.9875   43.7218 Y3         2 LUT     -0.220316
    151 C13        72.6125   63.8535   42.6335 Y4         2 LUT      0.215937
    152 C14        73.6394   64.7603   42.5515 Y5         2 LUT     -0.185793
    153 C15        74.8170   64.8142   41.8017 Y6         2 LUT     -0.057835
    154 C16        66.7513   60.6592   51.7014 Y7         2 LUT     -0.405615
    155 C17        68.9718   61.0030   51.0019 Y7         2 LUT     -0.405615
    156 C18        65.7788   63.9587   48.2240 Y9         2 LUT     -0.369639
    157 C19        69.3376   60.7973   45.6983 W1         2 LUT     -0.333362
    158 C20        72.2977   62.8583   41.5837 W2         2 LUT     -0.323439
    159 C21        86.2877   66.1609   35.6288 Z1         2 LUT      0.406104
    160 C22        86.7765   65.7743   34.1468 Z2         2 LUT     -0.404965
    161 C23        86.5169   66.6095   32.9495 Z3         2 LUT      0.391255
    162 O23        86.4764   65.8595   31.7020 S1         2 LUT     -0.528210
    163 C24        85.2294   67.3459   33.1934 W6         2 LUT     -0.258361
    164 C25        84.4698   67.3251   34.2654 Z5         2 LUT      0.133546
    165 C26        84.6974   66.4490   35.5158 W8         2 LUT     -0.147008
    166 C27        84.1878   67.1300   36.7884 Z7         2 LUT      0.023843
    167 C28        82.9672   66.8304   37.2128 Z8         2 LUT     -0.216987
    168 C29        82.2904   67.3583   38.4342 Z9         2 LUT      0.206524
    169 C30        81.1492   66.6419   38.8304 Y1         2 LUT     -0.215556
    170 C31        80.3919   66.8294   40.0891 Y2         2 LUT      0.025142
    171 C32        79.2292   66.1540   40.3179 Y3         2 LUT     -0.212209
    172 C33        78.2890   66.2375   41.4214 Y4         2 LUT      0.240937
    173 C34        77.0731   65.6896   41.2466 Y5         2 LUT     -0.218862
    174 C35        75.9220   65.6321   42.1098 Y6         2 LUT     -0.023547
    175 C36        87.1101   67.3589   36.0205 Y7         2 LUT     -0.393485
    176 C37        86.7337   64.9884   36.6023 Y7         2 LUT     -0.393485
    177 C38        83.1737   68.0374   34.1865 Y9         2 LUT     -0.387526
    178 C39        82.8938   68.4358   39.2964 W1         2 LUT     -0.322618
    179 C40        78.7726   67.0920   42.5954 W2         2 LUT     -0.358472
    180 H403       78.0807   67.1110   43.4086 R7         2 LUT      0.097720
    181 H402       79.7932   66.7830   42.8776 R7         2 LUT      0.097720
    182 H401       78.8355   68.1179   42.3253 R7         2 LUT      0.097720
    183 H393       82.9577   69.3913   38.8105 R4         2 LUT      0.082505
    184 H392       82.2624   68.7457   40.0901 R4         2 LUT      0.082505
    185 H391       83.8692   68.0520   39.6059 R4         2 LUT      0.082505
    186 H383       82.8876   68.6585   35.0235 R1         2 LUT      0.104030
    187 H382       83.2220   68.6944   33.4056 R1         2 LUT      0.104030
    188 H381       82.3029   67.3931   34.0374 R1         2 LUT      0.104030
    189 H373       87.8707   64.8152   36.7345 T4         2 LUT      0.089537
    190 H372       86.2976   65.1897   37.5502 T4         2 LUT      0.089537
    191 H371       86.2538   64.0414   36.2543 T4         2 LUT      0.089537
    192 H363       88.2015   67.2135   35.8770 T4         2 LUT      0.089537
    193 H362       86.7054   68.2682   35.5377 T4         2 LUT      0.089537
    194 H361       86.9990   67.5416   37.0275 T4         2 LUT      0.089537
    195 H222       87.8337   65.4783   34.0240 U2         2 LUT      0.127376
    196 H221       86.2029   64.8583   33.9495 U2         2 LUT      0.127376
    197 H203       71.7926   63.3194   40.7131 R7         2 LUT      0.087068
    198 H202       73.2696   62.4441   41.0912 R7         2 LUT      0.087068
    199 H201       71.6765   62.0158   41.9098 R7         2 LUT      0.087068
    200 H193       69.7575   60.0937   46.4606 R4         2 LUT      0.089716
    201 H192       68.2737   60.5498   45.5853 R4         2 LUT      0.089716
    202 H191       69.8172   60.5410   44.7995 R4         2 LUT      0.089716
    203 H183       66.1336   64.9795   48.1910 R1         2 LUT      0.094572
    204 H182       66.0487   63.4677   47.2960 R1         2 LUT      0.094572
    205 H181       64.6887   64.1397   48.2168 R1         2 LUT      0.094572
    206 H173       69.2832   60.6710   51.9794 T4         2 LUT      0.093752
    207 H172       68.9714   60.0638   50.3997 T4         2 LUT      0.093752
    208 H171       69.8112   61.6445   50.6297 T4         2 LUT      0.093752
    209 H163       66.8709   59.6876   51.2743 T4         2 LUT      0.093752
    210 H162       67.2555   60.6242   52.6821 T4         2 LUT      0.093752
    211 H161       65.7978   60.9792   51.9726 T4         2 LUT      0.093752
    212 HO3        65.5602   65.5613   52.7532 Q1         2 LUT      0.300121
    213 H8         68.7812   63.6830   47.7114 U7         2 LUT      0.080784
    214 H7         67.9557   60.7641   48.1674 U6         2 LUT      0.042190
    215 H42        64.4161   63.1262   50.8402 U5         2 LUT      0.145166
    216 H41        65.0267   64.6231   50.4467 U5         2 LUT      0.145166
    217 H35        75.7384   66.2248   43.0548 T3         2 LUT      0.077919
    218 H34        76.8849   65.1972   40.2391 T2         2 LUT      0.073626
    219 H32        78.8960   65.5175   39.4571 T1         2 LUT      0.092510
    220 H31        80.6635   67.5806   40.8460 U9         2 LUT      0.070048
    221 H30        80.7973   65.8157   38.2194 U8         2 LUT      0.085442
    222 H3         65.7796   63.1263   52.7378 U3         2 LUT     -0.031596
    223 H28        82.6147   65.9139   36.7963 U7         2 LUT      0.084728
    224 H27        84.7658   67.9668   37.1930 U6         2 LUT      0.087291
    225 H26        84.2195   65.5043   35.2322 Q6         2 LUT      0.075325
    226 H24        84.8102   67.9518   32.3175 Q5         2 LUT      0.094482
    227 H23        87.2848   67.3439   32.9740 U3         2 LUT     -0.024869
    228 H22        67.9942   62.9141   52.6657 U2         2 LUT      0.127376
    229 H21        68.1705   63.7856   51.2090 U2         2 LUT      0.127376
    230 H15        74.9062   64.1849   40.8823 T3         2 LUT      0.093200
    231 H14        73.7291   65.5601   43.2866 T2         2 LUT      0.068865
    232 H12        71.8484   64.8851   44.3396 T1         2 LUT      0.095507
    233 H11        71.0525   62.0196   43.9173 U9         2 LUT      0.068930
    234 H10        70.3848   64.1086   46.1030 U8         2 LUT      0.083911
    235 H1         87.2712   65.8977   31.1356 Q1         2 LUT      0.297311
@<TRIPOS>BOND
    1     6     1 1
    2     7     2 1
    3     8     3 1
    4     9     4 1
    5    11     4 1
    6    12     6 1
    7    13     9 1
    8    16     9 1
    9    25     5 1
   10    25    16 1
   11    26    10 1
   12    26    17 1
   13    27    18 1
   14    28    14 1
   15    28    19 1
   16    29    12 1
   17    30    13 1
   18    31    24 1
   19    32     1 1
   20    32    25 1
   21    33    21 1
   22    33    26 1
   23    34    22 1
   24    34    27 1
   25    35    23 1
   26    35    28 1
   27    36    12 1
   28    36    24 1
   29    37    13 1
   30    37    15 1
   31    38    31 1
   32    39    20 1
   33    39    32 1
   34    40     2 1
   35    40    33 1
   36    41     3 1
   37    41    34 1
   38    42     4 1
   39    42    35 1
   40    43    38 1
   41    44     5 1
   42    44    17 1
   43    44    39 1
   44    45    10 1
   45    45    18 1
   46    45    40 1
   47    46    19 1
   48    46    41 1
   49    47    14 1
   50    47    16 1
   51    47    42 1
   52    48    38 1
   53    49    48 1
   54    50    49 1
   55    51    50 1
   56    52    51 1
   57    53    51 1
   58    54    53 1
   59    55    54 1
   60    56    55 1
   61    57    56 1
   62    58    56 1
   63    59    58 1
   64    60    59 1
   65    61    60 1
   66    62    61 1
   67    63    61 1
   68    64    27 1
   69    64    46 1
   70    65     5 1
   71    65    10 1
   72    65    64 1
   73    65    14 1
   74    66    23 1
   75    67    23 1
   76    68    23 1
   77    69    22 1
   78    70    22 1
   79    71    22 1
   80    72    21 1
   81    73    21 1
   82    74    21 1
   83    75    20 1
   84    76    20 1
   85    77    20 1
   86    78    15 1
   87    79    15 1
   88    80    15 1
   89    81     8 1
   90    82     8 1
   91    83     8 1
   92    84     7 1
   93    85     7 1
   94    86     6 1
   95    87     6 1
   96    88     3 1
   97    89     3 1
   98    90     1 1
   99    91     1 1
  100    92    63 1
  101    93    63 1
  102    94    63 1
  103    95    62 1
  104    96    62 1
  105    97    62 1
  106    98    60 1
  107    99    60 1
  108   100    59 1
  109   101    59 1
  110   102    58 1
  111   103    58 1
  112   104    57 1
  113   105    57 1
  114   106    57 1
  115   107    55 1
  116   108    55 1
  117   109    54 1
  118   110    54 1
  119   111    53 1
  120   112    53 1
  121   113    19 1
  122   114    18 1
  123   115    17 1
  124   116     9 1
  125   117     2 1
  126   118    52 1
  127   119    52 1
  128   120    52 1
  129   121    51 1
  130   122    50 1
  131   123    50 1
  132   124    49 1
  133   125    49 1
  134   126    48 1
  135   127    48 1
  136   128    43 1
  137   129    43 1
  138   130    43 1
  139   131    39 1
  140   132    32 1
  141   133    31 1
  142   134    61 1
  143   135    56 1
  144   136    24 1
  145   137    24 1
  146   139   138 1
  147   140   139 1
  148   141   140 1
  149   142   140 1
  150   143   142 1
  151   144   138 1
  152   144   143 1
  153   145   144 1
  154   146   145 1
  155   147   146 1
  156   148   147 1
  157   149   148 1
  158   150   149 1
  159   151   150 1
  160   152   151 1
  161   153   152 1
  162   154   138 1
  163   155   138 1
  164   156   143 1
  165   157   147 1
  166   158   151 1
  167   160   159 1
  168   161   160 1
  169   162   161 1
  170   163   161 1
  171   164   163 1
  172   165   159 1
  173   165   164 1
  174   166   165 1
  175   167   166 1
  176   168   167 1
  177   169   168 1
  178   170   169 1
  179   171   170 1
  180   172   171 1
  181   173   172 1
  182   174   153 1
  183   174   173 1
  184   175   159 1
  185   176   159 1
  186   177   164 1
  187   178   168 1
  188   179   172 1
  189   180   179 1
  190   181   179 1
  191   182   179 1
  192   183   178 1
  193   184   178 1
  194   185   178 1
  195   186   177 1
  196   187   177 1
  197   188   177 1
  198   189   176 1
  199   190   176 1
  200   191   176 1
  201   192   175 1
  202   193   175 1
  203   194   175 1
  204   195   160 1
  205   196   160 1
  206   197   158 1
  207   198   158 1
  208   199   158 1
  209   200   157 1
  210   201   157 1
  211   202   157 1
  212   203   156 1
  213   204   156 1
  214   205   156 1
  215   206   155 1
  216   207   155 1
  217   208   155 1
  218   209   154 1
  219   210   154 1
  220   211   154 1
  221   212   141 1
  222   213   146 1
  223   214   145 1
  224   215   142 1
  225   216   142 1
  226   217   174 1
  227   218   173 1
  228   219   171 1
  229   220   170 1
  230   221   169 1
  231   222   140 1
  232   223   167 1
  233   224   166 1
  234   225   165 1
  235   226   163 1
  236   227   161 1
  237   228   139 1
  238   229   139 1
  239   230   153 1
  240   231   152 1
  241   232   150 1
  242   233   149 1
  243   234   148 1
  244   235   162 1
  245   65    153 1
  246   65    174 1
@<TRIPOS>SUBSTRUCTURE
      1 CLA               1 ****               0 ****  **** 
      2 LUT             138 ****               0 ****  **** 
