@<TRIPOS>MOLECULE
Cpptraj generated mol2 file.
  235   246     2     0     0
SMALL
USER_CHARGES


@<TRIPOS>ATOM
      1 CAA        78.1682   59.3048   33.5082 a2         1 CLA     -0.055900
      2 CAB        78.0156   62.0448   42.9521 c8         1 CLA     -0.148500
      3 CAC        71.3282   57.6513   41.7489 a2         1 CLA     -0.012600
      4 CAD        74.1641   56.3856   34.2525 ck         1 CLA      0.398800
      5 NA         77.2043   59.2917   36.9971 ns         1 CLA     -0.225500
      6 CBA        79.3544   59.3893   32.5332 a2         1 CLA     -0.135000
      7 CBB        79.1320   62.3150   43.5887 c0         1 CLA     -0.395200
      8 CBC        71.4299   56.1422   41.6369 a3         1 CLA     -0.037700
      9 CBD        75.5982   57.0993   34.0260 a1         1 CLA     -0.053900
     10 NB         77.0089   60.5282   39.7561 nm         1 CLA     -0.295700
     11 OBD        73.7522   55.5727   33.4528 o2         1 CLA     -0.494600
     12 CGA        80.1618   58.1417   32.1597 c4         1 CLA      0.827000
     13 CGD        76.6429   56.0358   33.6484 c4         1 CLA      0.655300
     14 ND         74.4597   58.2250   37.3287 nm         1 CLA     -0.291600
     15 CED        77.6173   53.9405   34.2250 a3         1 CLA      0.005400
     16 CHA        75.9627   57.8354   35.3415 cs         1 CLA     -0.123800
     17 CHB        78.8428   60.7331   38.1702 aa         1 CLA     -0.291900
     18 CHC        75.6240   60.4570   41.7848 aa         1 CLA     -0.090400
     19 CHD        72.5997   57.9880   38.9116 aa         1 CLA     -0.052000
     20 CMA        80.6383   58.9691   36.3536 a3         1 CLA     -0.230700
     21 CMB        80.2424   62.3357   40.5249 a3         1 CLA     -0.180800
     22 CMC        73.4532   59.1961   43.7014 a3         1 CLA     -0.134000
     23 CMD        71.3761   56.1684   36.4872 a3         1 CLA     -0.141100
     24 C1         80.9991   56.0488   32.8007 a2         1 CLA      0.023000
     25 C1A        77.1371   58.5637   35.7599 ac         1 CLA     -0.015100
     26 C1B        78.2587   61.0167   39.4632 cr         1 CLA      0.054700
     27 C1C        74.5249   59.6532   41.3192 cn         1 CLA     -0.005600
     28 C1D        73.2142   57.6791   37.6557 ap         1 CLA     -0.047300
     29 O1A        80.4629   57.8678   30.9887 o2         1 CLA     -0.610800
     30 O1D        77.3354   56.0794   32.6459 o2         1 CLA     -0.558200
     31 C2         81.5133   55.4861   34.1035 c8         1 CLA     -0.325100
     32 C2A        78.3843   58.6949   34.9285 a1         1 CLA      0.098600
     33 C2B        78.8263   61.7254   40.5945 cb         1 CLA      0.088500
     34 C2C        73.4177   59.1604   42.1510 cb         1 CLA      0.053700
     35 C2D        72.7100   56.9123   36.5312 cb         1 CLA      0.058900
     36 O2A        80.5583   57.3534   33.1899 o1         1 CLA     -0.437200
     37 O2D        76.6515   54.9447   34.5501 o1         1 CLA     -0.357600
     38 C3         82.1270   54.2977   34.3335 c5         1 CLA      0.031200
     39 C3A        79.2859   59.5666   35.8559 a1         1 CLA      0.166800
     40 C3B        77.8964   61.7118   41.5806 cb         1 CLA      0.035000
     41 C3C        72.5516   58.4649   41.3387 cb         1 CLA     -0.089900
     42 C3D        73.7357   56.9201   35.5800 cb         1 CLA     -0.035900
     43 C4         81.4176   53.0203   34.6557 a3         1 CLA     -0.053300
     44 C4A        78.4258   59.8519   37.1040 ac         1 CLA      0.001800
     45 C4B        76.7752   60.8547   41.0783 cn         1 CLA     -0.020900
     46 C4C        73.1836   58.5014   40.0727 cr         1 CLA     -0.044400
     47 C4D        74.7811   57.6870   36.1002 c6         1 CLA     -0.046000
     48 C5         83.6689   54.2934   34.0834 a2         1 CLA     -0.070400
     49 C6         84.4552   55.5602   34.5910 a2         1 CLA      0.043900
     50 C7         84.4893   55.4828   36.1939 a2         1 CLA     -0.150000
     51 C8         84.5348   56.8758   36.8808 a1         1 CLA      0.064200
     52 C9         85.7639   57.7288   36.3929 a3         1 CLA     -0.259300
     53 C10        84.4160   56.8238   38.4096 a2         1 CLA     -0.071900
     54 C11        83.0956   56.4948   39.0516 a2         1 CLA      0.014500
     55 C12        83.2614   56.5834   40.6159 a2         1 CLA     -0.112100
     56 C13        81.9180   56.7259   41.4852 a1         1 CLA      0.089200
     57 C14        81.4803   58.1517   41.2883 a3         1 CLA     -0.239100
     58 C15        82.2394   56.3919   42.9964 a2         1 CLA     -0.102200
     59 C16        83.3128   57.2355   43.7150 a2         1 CLA      0.023900
     60 C17        83.3366   56.8752   45.1887 a2         1 CLA     -0.105700
     61 C18        84.3344   57.7571   46.1522 a1         1 CLA      0.206800
     62 C19        84.2283   59.2935   45.9951 a3         1 CLA     -0.280100
     63 C20        84.4391   57.2533   47.6313 a3         1 CLA     -0.280100
     64 NC         74.3220   59.2590   40.0342 nx         1 CLA     -0.309200
     65 MG         75.6681   59.3815   38.4985 mg         1 CLA      0.895000
     66 HMD3       71.2194   55.7073   37.4948 dc         1 CLA      0.064300
     67 HMD2       70.6161   56.8491   36.2719 dc         1 CLA      0.064300
     68 HMD1       71.5156   55.4904   35.6536 dc         1 CLA      0.064300
     69 HMC3       72.7690   59.9878   44.0597 dc         1 CLA      0.052100
     70 HMC2       73.2045   58.2375   44.0444 dc         1 CLA      0.052100
     71 HMC1       74.5066   59.2963   43.9453 dc         1 CLA      0.052100
     72 HMB3       80.5169   62.6362   39.5573 dc         1 CLA      0.063600
     73 HMB2       80.3343   63.2585   41.1816 dc         1 CLA      0.063600
     74 HMB1       81.0286   61.5844   40.7987 dc         1 CLA      0.063600
     75 HMA3       80.4471   57.9768   36.6866 dc         1 CLA      0.058300
     76 HMA2       81.2516   58.8336   35.4857 dc         1 CLA      0.058300
     77 HMA1       81.1229   59.5610   37.1388 dc         1 CLA      0.058300
     78 HED3       77.2878   53.5449   33.2963 dc         1 CLA      0.079300
     79 HED2       78.5356   54.4606   34.0927 dc         1 CLA      0.079300
     80 HED1       77.7635   53.1068   34.9373 dc         1 CLA      0.079300
     81 HBC3       71.7046   55.6103   40.7072 dc         1 CLA      0.016300
     82 HBC2       72.1102   55.7122   42.4158 dc         1 CLA      0.016300
     83 HBC1       70.4537   55.7190   41.9321 dc         1 CLA      0.016300
     84 HBB2       79.1236   62.4702   44.7014 da         1 CLA      0.183000
     85 HBB1       80.1237   62.6004   43.1322 da         1 CLA      0.183000
     86 HBA2       78.8928   59.8484   31.6799 dc         1 CLA      0.029400
     87 HBA1       80.1002   60.2160   32.9218 dc         1 CLA      0.029400
     88 HAC2       71.0820   58.0090   42.7726 dc         1 CLA      0.029300
     89 HAC1       70.4673   57.9496   41.2031 dc         1 CLA      0.029300
     90 HAA2       77.4758   58.7175   32.9600 dc         1 CLA      0.028700
     91 HAA1       77.9004   60.3834   33.6419 dc         1 CLA      0.028700
     92 H203       85.4562   57.5701   47.9874 dc         1 CLA      0.065600
     93 H202       83.7508   57.8737   48.1795 dc         1 CLA      0.065600
     94 H201       84.2759   56.2331   47.6537 dc         1 CLA      0.065600
     95 H193       84.8664   59.7556   46.7378 dc         1 CLA      0.065600
     96 H192       84.5598   59.6489   45.0169 dc         1 CLA      0.065600
     97 H191       83.2468   59.6210   46.1245 dc         1 CLA      0.065600
     98 H172       82.3043   56.9496   45.6332 dc         1 CLA      0.027600
     99 H171       83.6971   55.8442   45.3184 dc         1 CLA      0.027600
    100 H162       84.2932   57.0485   43.2614 dc         1 CLA      0.002900
    101 H161       82.9898   58.3117   43.7215 dc         1 CLA      0.002900
    102 H152       81.2593   56.4516   43.5247 dc         1 CLA      0.029100
    103 H151       82.6323   55.4092   43.0326 dc         1 CLA      0.029100
    104 H143       81.0690   58.3013   40.3528 dc         1 CLA      0.063600
    105 H142       80.6913   58.2843   41.9669 dc         1 CLA      0.063600
    106 H141       82.2884   58.8432   41.5110 dc         1 CLA      0.063600
    107 H122       83.7389   55.6560   40.8352 dc         1 CLA      0.032500
    108 H121       84.0135   57.3350   40.8456 dc         1 CLA      0.032500
    109 H112       82.2751   57.1491   38.6215 dc         1 CLA      0.006600
    110 H111       82.6862   55.4921   38.6736 dc         1 CLA      0.006600
    111 H102       85.0952   56.0428   38.7326 dc         1 CLA      0.024100
    112 H101       84.8513   57.7452   38.7248 dc         1 CLA      0.024100
    113 HHD        71.6122   57.4838   39.0573 da         1 CLA      0.174300
    114 HHC        75.4574   60.8482   42.7654 da         1 CLA      0.136800
    115 HHB        79.8617   61.1292   37.9142 da         1 CLA      0.138300
    116 HBD        75.4716   57.7119   33.1592 dc         1 CLA      0.107700
    117 HAB        77.1513   61.8825   43.5437 da         1 CLA      0.155200
    118 H93        85.8224   58.7157   36.8565 dc         1 CLA      0.069500
    119 H92        86.7419   57.2050   36.5759 dc         1 CLA      0.069500
    120 H91        85.7637   57.8215   35.2679 dc         1 CLA      0.069500
    121 H8         83.6258   57.4249   36.5554 dc         1 CLA      0.029300
    122 H72        83.6496   54.8924   36.5206 dc         1 CLA      0.044400
    123 H71        85.2998   54.8442   36.5614 dc         1 CLA      0.044400
    124 H62        85.4521   55.4501   34.2372 dc         1 CLA      0.015600
    125 H61        84.0161   56.4883   34.2950 dc         1 CLA      0.015600
    126 H52        84.0868   53.4265   34.6244 dc         1 CLA      0.033200
    127 H51        83.8476   54.0818   32.9702 dc         1 CLA      0.033200
    128 H43        81.6479   52.6563   35.6770 dc         1 CLA      0.037000
    129 H42        80.3621   53.1606   34.4166 dc         1 CLA      0.037000
    130 H41        81.8252   52.2645   34.0238 dc         1 CLA      0.037000
    131 H3A        79.5536   60.5559   35.3754 dc         1 CLA      0.041100
    132 H2A        78.9107   57.7636   34.8474 dc         1 CLA      0.083100
    133 H2         81.3621   56.1040   35.0627 da         1 CLA      0.180900
    134 H18        85.3089   57.5625   45.7168 dc         1 CLA     -0.003900
    135 H13        81.1759   56.0412   41.0932 dc         1 CLA      0.019700
    136 H12        80.2288   55.4746   32.3171 dc         1 CLA      0.120400
    137 H11        81.9118   56.0192   32.2221 dc         1 CLA      0.120400
    138 C1         68.1132   61.1251   49.7619 Z1         2 LUT      0.509236
    139 C2         66.8192   61.2023   50.5478 Z2         2 LUT     -0.434695
    140 C3         66.1238   62.5355   50.7842 Z3         2 LUT      0.437453
    141 O3         66.5028   63.0751   52.0595 S1         2 LUT     -0.547129
    142 C4         66.4358   63.5669   49.6916 Z4         2 LUT     -0.468603
    143 C5         67.2421   63.1019   48.4843 Z5         2 LUT      0.279246
    144 C6         67.9902   61.9826   48.4715 Z6         2 LUT     -0.305473
    145 C7         68.5552   61.4954   47.1669 Z7         2 LUT      0.069402
    146 C8         69.5672   62.0606   46.5412 Z8         2 LUT     -0.191631
    147 C9         70.0239   61.9907   45.1513 Z9         2 LUT      0.196698
    148 C10        71.0236   62.8685   44.7662 Y1         2 LUT     -0.208611
    149 C11        71.5658   62.9766   43.4747 Y2         2 LUT      0.030784
    150 C12        72.6388   63.8185   43.2776 Y3         2 LUT     -0.220316
    151 C13        73.3442   64.0295   42.0761 Y4         2 LUT      0.215937
    152 C14        74.6274   64.6864   42.1110 Y5         2 LUT     -0.185793
    153 C15        75.7144   64.7302   41.0967 Y6         2 LUT     -0.057835
    154 C16        68.5464   59.6523   49.5538 Y7         2 LUT     -0.405615
    155 C17        69.1223   61.8087   50.6905 Y7         2 LUT     -0.405615
    156 C18        67.0977   64.0882   47.3342 Y9         2 LUT     -0.369639
    157 C19        69.4883   60.9029   44.3034 W1         2 LUT     -0.333362
    158 C20        72.6775   63.6111   40.8244 W2         2 LUT     -0.323439
    159 C21        87.2762   66.1259   35.2027 Z1         2 LUT      0.406104
    160 C22        87.9277   65.6618   33.8987 Z2         2 LUT     -0.404965
    161 C23        87.8668   66.6653   32.7790 Z3         2 LUT      0.391255
    162 O23        88.2889   65.8873   31.6233 S1         2 LUT     -0.528210
    163 C24        86.4687   67.2589   32.7354 W6         2 LUT     -0.258361
    164 C25        85.5206   67.2041   33.6778 Z5         2 LUT      0.133546
    165 C26        85.8175   66.3972   34.9339 W8         2 LUT     -0.147008
    166 C27        85.2244   67.0718   36.1277 Z7         2 LUT      0.023843
    167 C28        84.1233   66.5518   36.6839 Z8         2 LUT     -0.216987
    168 C29        83.5239   66.8403   37.9904 Z9         2 LUT      0.206524
    169 C30        82.3706   66.1859   38.2606 Y1         2 LUT     -0.215556
    170 C31        81.5260   66.2389   39.4409 Y2         2 LUT      0.025142
    171 C32        80.2251   65.8543   39.4142 Y3         2 LUT     -0.212209
    172 C33        79.3436   65.8082   40.5590 Y4         2 LUT      0.240937
    173 C34        78.1458   65.2086   40.4483 Y5         2 LUT     -0.218862
    174 C35        76.9991   65.1881   41.2903 Y6         2 LUT     -0.023547
    175 C36        88.2340   67.3156   35.7119 Y7         2 LUT     -0.393485
    176 C37        87.5466   64.9612   36.2371 Y7         2 LUT     -0.393485
    177 C38        84.2567   67.9029   33.5070 Y9         2 LUT     -0.387526
    178 C39        84.1499   67.8542   38.8904 W1         2 LUT     -0.322618
    179 C40        79.8326   66.5002   41.8558 W2         2 LUT     -0.358472
    180 H403       80.8199   66.3958   42.1918 R7         2 LUT      0.097720
    181 H402       79.6528   67.5134   41.6359 R7         2 LUT      0.097720
    182 H401       79.1778   66.2150   42.6970 R7         2 LUT      0.097720
    183 H393       83.5253   68.1395   39.6779 R4         2 LUT      0.082505
    184 H392       85.0799   67.4407   39.2674 R4         2 LUT      0.082505
    185 H391       84.3331   68.6989   38.2444 R4         2 LUT      0.082505
    186 H383       84.1995   68.7762   34.0862 R1         2 LUT      0.104030
    187 H382       84.0395   68.0480   32.4593 R1         2 LUT      0.104030
    188 H381       83.3708   67.2949   33.8841 R1         2 LUT      0.104030
    189 H373       87.0617   65.2078   37.2320 T4         2 LUT      0.089537
    190 H372       87.2124   63.9939   35.8715 T4         2 LUT      0.089537
    191 H371       88.6214   64.8293   36.4370 T4         2 LUT      0.089537
    192 H363       89.2552   66.9596   35.8055 T4         2 LUT      0.089537
    193 H362       88.3617   68.1099   34.9468 T4         2 LUT      0.089537
    194 H361       87.9311   67.7051   36.6942 T4         2 LUT      0.089537
    195 H222       89.0121   65.4694   34.0221 U2         2 LUT      0.127376
    196 H221       87.2833   64.7873   33.6104 U2         2 LUT      0.127376
    197 H203       71.6099   63.6872   40.8942 R7         2 LUT      0.087068
    198 H202       73.0209   63.9703   39.8888 R7         2 LUT      0.087068
    199 H201       72.8141   62.5082   40.5987 R7         2 LUT      0.087068
    200 H193       70.0935   60.2808   43.7491 R4         2 LUT      0.089716
    201 H192       68.9724   60.1276   44.9001 R4         2 LUT      0.089716
    202 H191       68.8034   61.3114   43.6413 R4         2 LUT      0.089716
    203 H183       66.6123   63.5813   46.4593 R1         2 LUT      0.094572
    204 H182       66.5287   64.9966   47.5669 R1         2 LUT      0.094572
    205 H181       68.0971   64.3862   47.0758 R1         2 LUT      0.094572
    206 H173       68.8402   62.8453   50.9020 T4         2 LUT      0.093752
    207 H172       69.2904   61.2290   51.5701 T4         2 LUT      0.093752
    208 H171       70.1044   61.9420   50.1302 T4         2 LUT      0.093752
    209 H163       69.5753   59.7083   49.1439 T4         2 LUT      0.093752
    210 H162       68.4311   59.0445   50.4778 T4         2 LUT      0.093752
    211 H161       67.8059   59.1748   48.9269 T4         2 LUT      0.093752
    212 HO3        66.0586   62.6839   52.8250 Q1         2 LUT      0.300121
    213 H8         70.1146   62.8319   47.0756 U7         2 LUT      0.080784
    214 H7         67.9969   60.6932   46.7216 U6         2 LUT      0.042190
    215 H42        65.4416   63.7496   49.2766 U5         2 LUT      0.145166
    216 H41        66.7230   64.5145   50.1371 U5         2 LUT      0.145166
    217 H35        77.0146   65.4654   42.3385 T3         2 LUT      0.077919
    218 H34        78.0912   64.7304   39.5475 T2         2 LUT      0.073626
    219 H32        79.8078   65.5021   38.5133 T1         2 LUT      0.092510
    220 H31        81.9710   66.7213   40.3243 U9         2 LUT      0.070048
    221 H30        81.9317   65.6640   37.4124 U8         2 LUT      0.085442
    222 H3         64.9753   62.4568   50.8159 U3         2 LUT     -0.031596
    223 H28        83.5710   65.8247   36.1570 U7         2 LUT      0.084728
    224 H27        85.6310   67.9104   36.6337 U6         2 LUT      0.087291
    225 H26        85.3345   65.4293   34.6865 Q6         2 LUT      0.075325
    226 H24        86.2732   67.8265   31.7970 Q5         2 LUT      0.094482
    227 H23        88.7804   67.2767   32.9700 U3         2 LUT     -0.024869
    228 H22        65.9373   60.7140   49.9574 U2         2 LUT      0.127376
    229 H21        66.7203   60.6050   51.4406 U2         2 LUT      0.127376
    230 H15        75.4211   64.3070   40.1040 T3         2 LUT      0.093200
    231 H14        74.9664   64.9099   43.1294 T2         2 LUT      0.068865
    232 H12        73.0940   64.2742   44.1674 T1         2 LUT      0.095507
    233 H11        71.0862   62.4525   42.6322 U9         2 LUT      0.068930
    234 H10        71.4214   63.6198   45.4345 U8         2 LUT      0.083911
    235 H1         88.0472   66.2753   30.7295 Q1         2 LUT      0.297311
@<TRIPOS>BOND
    1     6     1 1
    2     7     2 1
    3     8     3 1
    4     9     4 1
    5    11     4 1
    6    12     6 1
    7    13     9 1
    8    16     9 1
    9    25     5 1
   10    25    16 1
   11    26    10 1
   12    26    17 1
   13    27    18 1
   14    28    14 1
   15    28    19 1
   16    29    12 1
   17    30    13 1
   18    31    24 1
   19    32     1 1
   20    32    25 1
   21    33    21 1
   22    33    26 1
   23    34    22 1
   24    34    27 1
   25    35    23 1
   26    35    28 1
   27    36    12 1
   28    36    24 1
   29    37    13 1
   30    37    15 1
   31    38    31 1
   32    39    20 1
   33    39    32 1
   34    40     2 1
   35    40    33 1
   36    41     3 1
   37    41    34 1
   38    42     4 1
   39    42    35 1
   40    43    38 1
   41    44     5 1
   42    44    17 1
   43    44    39 1
   44    45    10 1
   45    45    18 1
   46    45    40 1
   47    46    19 1
   48    46    41 1
   49    47    14 1
   50    47    16 1
   51    47    42 1
   52    48    38 1
   53    49    48 1
   54    50    49 1
   55    51    50 1
   56    52    51 1
   57    53    51 1
   58    54    53 1
   59    55    54 1
   60    56    55 1
   61    57    56 1
   62    58    56 1
   63    59    58 1
   64    60    59 1
   65    61    60 1
   66    62    61 1
   67    63    61 1
   68    64    27 1
   69    64    46 1
   70    65     5 1
   71    65    10 1
   72    65    64 1
   73    65    14 1
   74    66    23 1
   75    67    23 1
   76    68    23 1
   77    69    22 1
   78    70    22 1
   79    71    22 1
   80    72    21 1
   81    73    21 1
   82    74    21 1
   83    75    20 1
   84    76    20 1
   85    77    20 1
   86    78    15 1
   87    79    15 1
   88    80    15 1
   89    81     8 1
   90    82     8 1
   91    83     8 1
   92    84     7 1
   93    85     7 1
   94    86     6 1
   95    87     6 1
   96    88     3 1
   97    89     3 1
   98    90     1 1
   99    91     1 1
  100    92    63 1
  101    93    63 1
  102    94    63 1
  103    95    62 1
  104    96    62 1
  105    97    62 1
  106    98    60 1
  107    99    60 1
  108   100    59 1
  109   101    59 1
  110   102    58 1
  111   103    58 1
  112   104    57 1
  113   105    57 1
  114   106    57 1
  115   107    55 1
  116   108    55 1
  117   109    54 1
  118   110    54 1
  119   111    53 1
  120   112    53 1
  121   113    19 1
  122   114    18 1
  123   115    17 1
  124   116     9 1
  125   117     2 1
  126   118    52 1
  127   119    52 1
  128   120    52 1
  129   121    51 1
  130   122    50 1
  131   123    50 1
  132   124    49 1
  133   125    49 1
  134   126    48 1
  135   127    48 1
  136   128    43 1
  137   129    43 1
  138   130    43 1
  139   131    39 1
  140   132    32 1
  141   133    31 1
  142   134    61 1
  143   135    56 1
  144   136    24 1
  145   137    24 1
  146   139   138 1
  147   140   139 1
  148   141   140 1
  149   142   140 1
  150   143   142 1
  151   144   138 1
  152   144   143 1
  153   145   144 1
  154   146   145 1
  155   147   146 1
  156   148   147 1
  157   149   148 1
  158   150   149 1
  159   151   150 1
  160   152   151 1
  161   153   152 1
  162   154   138 1
  163   155   138 1
  164   156   143 1
  165   157   147 1
  166   158   151 1
  167   160   159 1
  168   161   160 1
  169   162   161 1
  170   163   161 1
  171   164   163 1
  172   165   159 1
  173   165   164 1
  174   166   165 1
  175   167   166 1
  176   168   167 1
  177   169   168 1
  178   170   169 1
  179   171   170 1
  180   172   171 1
  181   173   172 1
  182   174   153 1
  183   174   173 1
  184   175   159 1
  185   176   159 1
  186   177   164 1
  187   178   168 1
  188   179   172 1
  189   180   179 1
  190   181   179 1
  191   182   179 1
  192   183   178 1
  193   184   178 1
  194   185   178 1
  195   186   177 1
  196   187   177 1
  197   188   177 1
  198   189   176 1
  199   190   176 1
  200   191   176 1
  201   192   175 1
  202   193   175 1
  203   194   175 1
  204   195   160 1
  205   196   160 1
  206   197   158 1
  207   198   158 1
  208   199   158 1
  209   200   157 1
  210   201   157 1
  211   202   157 1
  212   203   156 1
  213   204   156 1
  214   205   156 1
  215   206   155 1
  216   207   155 1
  217   208   155 1
  218   209   154 1
  219   210   154 1
  220   211   154 1
  221   212   141 1
  222   213   146 1
  223   214   145 1
  224   215   142 1
  225   216   142 1
  226   217   174 1
  227   218   173 1
  228   219   171 1
  229   220   170 1
  230   221   169 1
  231   222   140 1
  232   223   167 1
  233   224   166 1
  234   225   165 1
  235   226   163 1
  236   227   161 1
  237   228   139 1
  238   229   139 1
  239   230   153 1
  240   231   152 1
  241   232   150 1
  242   233   149 1
  243   234   148 1
  244   235   162 1
  245   65    153 1
  246   65    174 1
@<TRIPOS>SUBSTRUCTURE
      1 CLA               1 ****               0 ****  **** 
      2 LUT             138 ****               0 ****  **** 
