@<TRIPOS>MOLECULE
Cpptraj generated mol2 file.
  235   246     2     0     0
SMALL
USER_CHARGES


@<TRIPOS>ATOM
      1 CAA        79.7223   59.3595   33.7693 a2         1 CLA     -0.055900
      2 CAB        78.7053   61.7119   43.1570 c8         1 CLA     -0.148500
      3 CAC        71.8570   57.7948   41.4082 a2         1 CLA     -0.012600
      4 CAD        75.3411   57.0940   33.8300 ck         1 CLA      0.398800
      5 NA         78.3437   58.9988   37.0834 ns         1 CLA     -0.225500
      6 CBA        81.0973   59.2433   33.0168 a2         1 CLA     -0.135000
      7 CBB        79.7538   61.4757   44.0331 c0         1 CLA     -0.395200
      8 CBC        71.7035   56.2772   41.4031 a3         1 CLA     -0.037700
      9 CBD        76.8825   57.3343   33.9446 a1         1 CLA     -0.053900
     10 NB         77.8403   60.1397   39.8471 nm         1 CLA     -0.295700
     11 OBD        74.7946   56.7372   32.7715 o2         1 CLA     -0.494600
     12 CGA        81.4494   57.8794   32.4467 c4         1 CLA      0.827000
     13 CGD        77.5900   56.0672   33.4736 c4         1 CLA      0.655300
     14 ND         75.5686   58.0227   37.2191 nm         1 CLA     -0.291600
     15 CED        77.5516   53.6460   33.2643 a3         1 CLA      0.005400
     16 CHA        77.1903   57.8721   35.3527 cs         1 CLA     -0.123800
     17 CHB        79.9393   60.2383   38.5196 aa         1 CLA     -0.291900
     18 CHC        76.3477   60.1012   41.7268 aa         1 CLA     -0.090400
     19 CHD        73.4658   57.7080   38.5100 aa         1 CLA     -0.052000
     20 CMA        81.8413   58.6007   36.6597 a3         1 CLA     -0.230700
     21 CMB        80.9725   61.9851   40.9231 a3         1 CLA     -0.180800
     22 CMC        73.7586   59.3831   43.3714 a3         1 CLA     -0.134000
     23 CMD        72.4530   56.7047   35.6711 a3         1 CLA     -0.141100
     24 C1         82.0485   55.5815   32.9495 a2         1 CLA      0.023000
     25 C1A        78.3802   58.4889   35.8015 ac         1 CLA     -0.015100
     26 C1B        79.1581   60.4621   39.6761 cr         1 CLA      0.054700
     27 C1C        75.2291   59.3698   41.1644 cn         1 CLA     -0.005600
     28 C1D        74.2210   57.6285   37.2728 ap         1 CLA     -0.047300
     29 O1A        80.9771   57.4861   31.4056 o2         1 CLA     -0.610800
     30 O1D        78.6485   56.0582   32.8676 o2         1 CLA     -0.558200
     31 C2         82.7418   54.8926   34.1196 c8         1 CLA     -0.325100
     32 C2A        79.7867   58.6407   35.1036 a1         1 CLA      0.098600
     33 C2B        79.6036   61.1411   40.7835 cb         1 CLA      0.088500
     34 C2C        74.0311   59.0448   41.8969 cb         1 CLA      0.053700
     35 C2D        73.7671   57.1772   36.0101 cb         1 CLA      0.058900
     36 O2A        82.1646   56.9881   33.3247 o1         1 CLA     -0.437200
     37 O2D        76.8883   54.8904   33.7581 o1         1 CLA     -0.357600
     38 C3         83.8971   54.1851   33.9866 c5         1 CLA      0.031200
     39 C3A        80.5251   59.3201   36.2597 a1         1 CLA      0.166800
     40 C3B        78.6828   61.1169   41.7998 cb         1 CLA      0.035000
     41 C3C        73.1849   58.3949   41.0196 cb         1 CLA     -0.089900
     42 C3D        74.8775   57.2970   35.1988 cb         1 CLA     -0.035900
     43 C4         83.8142   52.6598   33.7943 a3         1 CLA     -0.053300
     44 C4A        79.6168   59.4863   37.4095 ac         1 CLA      0.001800
     45 C4B        77.5592   60.4234   41.1431 cn         1 CLA     -0.020900
     46 C4C        73.9195   58.3007   39.7131 cr         1 CLA     -0.044400
     47 C4D        75.9852   57.7123   36.0326 c6         1 CLA     -0.046000
     48 C5         85.1861   54.9028   33.7042 a2         1 CLA     -0.070400
     49 C6         85.3213   56.1877   34.4860 a2         1 CLA      0.043900
     50 C7         85.4820   55.9677   36.0094 a2         1 CLA     -0.150000
     51 C8         85.2679   57.2572   36.8489 a1         1 CLA      0.064200
     52 C9         86.2534   58.4510   36.3466 a3         1 CLA     -0.259300
     53 C10        85.5679   56.8984   38.3126 a2         1 CLA     -0.071900
     54 C11        85.1411   57.9485   39.2987 a2         1 CLA      0.014500
     55 C12        85.4981   57.5861   40.6888 a2         1 CLA     -0.112100
     56 C13        85.0919   58.6996   41.7652 a1         1 CLA      0.089200
     57 C14        85.9118   60.0406   41.5949 a3         1 CLA     -0.239100
     58 C15        85.1911   58.1095   43.1837 a2         1 CLA     -0.102200
     59 C16        84.6911   58.9526   44.4103 a2         1 CLA      0.023900
     60 C17        85.2624   58.5918   45.7589 a2         1 CLA     -0.105700
     61 C18        85.1165   57.1127   46.2168 a1         1 CLA      0.206800
     62 C19        85.8393   56.7652   47.5478 a3         1 CLA     -0.280100
     63 C20        83.6049   56.6702   46.2464 a3         1 CLA     -0.280100
     64 NC         75.1191   58.9161   39.9345 nx         1 CLA     -0.309200
     65 MG         76.6504   59.1048   38.5072 mg         1 CLA      0.895000
     66 HMD3       71.6510   57.4433   35.9114 dc         1 CLA      0.064300
     67 HMD2       72.2359   56.5886   34.6080 dc         1 CLA      0.064300
     68 HMD1       72.2059   55.7225   36.0444 dc         1 CLA      0.064300
     69 HMC3       74.7082   59.5071   43.8893 dc         1 CLA      0.052100
     70 HMC2       73.1443   60.2419   43.4171 dc         1 CLA      0.052100
     71 HMC1       73.2365   58.5541   43.9139 dc         1 CLA      0.052100
     72 HMB3       80.9209   62.6465   40.1224 dc         1 CLA      0.063600
     73 HMB2       80.9348   62.5869   41.8707 dc         1 CLA      0.063600
     74 HMB1       81.7306   61.2797   40.8757 dc         1 CLA      0.063600
     75 HMA3       82.5535   58.6147   35.8274 dc         1 CLA      0.058300
     76 HMA2       82.3281   59.2052   37.4208 dc         1 CLA      0.058300
     77 HMA1       81.7065   57.5877   37.0713 dc         1 CLA      0.058300
     78 HED3       78.4815   53.5572   33.8370 dc         1 CLA      0.079300
     79 HED2       76.8771   52.8010   33.6073 dc         1 CLA      0.079300
     80 HED1       77.7429   53.5991   32.1592 dc         1 CLA      0.079300
     81 HBC3       70.8506   56.1243   42.0286 dc         1 CLA      0.016300
     82 HBC2       71.6494   55.9635   40.3883 dc         1 CLA      0.016300
     83 HBC1       72.6089   55.9418   41.8677 dc         1 CLA      0.016300
     84 HBB2       79.6985   61.8686   45.0742 da         1 CLA      0.183000
     85 HBB1       80.6095   60.8212   43.7284 da         1 CLA      0.183000
     86 HBA2       81.0174   59.8714   32.0987 dc         1 CLA      0.029400
     87 HBA1       81.7614   59.6277   33.7516 dc         1 CLA      0.029400
     88 HAC2       71.5616   58.2553   42.3627 dc         1 CLA      0.029300
     89 HAC1       71.1414   58.1651   40.6586 dc         1 CLA      0.029300
     90 HAA2       79.0684   58.9032   33.0175 dc         1 CLA      0.028700
     91 HAA1       79.4863   60.3734   33.9078 dc         1 CLA      0.028700
     92 H203       83.5588   55.6357   46.5201 dc         1 CLA      0.065600
     93 H202       83.0102   57.1248   47.0759 dc         1 CLA      0.065600
     94 H201       83.1068   56.7819   45.2657 dc         1 CLA      0.065600
     95 H193       85.4780   57.4522   48.3262 dc         1 CLA      0.065600
     96 H192       85.6932   55.7326   47.8066 dc         1 CLA      0.065600
     97 H191       86.8717   56.8493   47.3211 dc         1 CLA      0.065600
     98 H172       86.3298   58.9000   45.6835 dc         1 CLA      0.027600
     99 H171       84.8301   59.2524   46.5240 dc         1 CLA      0.027600
    100 H162       84.9717   60.0150   44.2149 dc         1 CLA      0.002900
    101 H161       83.6610   58.7255   44.4791 dc         1 CLA      0.002900
    102 H152       84.6092   57.1602   43.2471 dc         1 CLA      0.029100
    103 H151       86.3114   57.9860   43.2948 dc         1 CLA      0.029100
    104 H143       85.7310   60.4106   40.6078 dc         1 CLA      0.063600
    105 H142       85.4861   60.7360   42.3138 dc         1 CLA      0.063600
    106 H141       86.9640   59.9620   41.7732 dc         1 CLA      0.063600
    107 H122       85.0116   56.6819   40.9409 dc         1 CLA      0.032500
    108 H121       86.5639   57.5791   40.7137 dc         1 CLA      0.032500
    109 H112       85.7500   58.7225   39.0806 dc         1 CLA      0.006600
    110 H111       84.0541   58.0885   39.1964 dc         1 CLA      0.006600
    111 H102       85.0401   56.0188   38.4971 dc         1 CLA      0.024100
    112 H101       86.6493   56.6891   38.4465 dc         1 CLA      0.024100
    113 HHD        72.4440   57.3561   38.4827 da         1 CLA      0.174300
    114 HHC        76.2905   60.4178   42.7531 da         1 CLA      0.136800
    115 HHB        80.9810   60.5266   38.4536 da         1 CLA      0.138300
    116 HBD        77.1293   58.1198   33.3147 dc         1 CLA      0.107700
    117 HAB        77.8702   62.3296   43.4672 da         1 CLA      0.155200
    118 H93        86.2115   59.4111   36.8878 dc         1 CLA      0.069500
    119 H92        87.2138   57.9993   36.2795 dc         1 CLA      0.069500
    120 H91        85.8256   58.6809   35.3955 dc         1 CLA      0.069500
    121 H8         84.2300   57.5903   36.7824 dc         1 CLA      0.029300
    122 H72        84.7579   55.1457   36.3828 dc         1 CLA      0.044400
    123 H71        86.4453   55.5583   36.3258 dc         1 CLA      0.044400
    124 H62        86.2145   56.7660   34.1611 dc         1 CLA      0.015600
    125 H61        84.3826   56.8322   34.3944 dc         1 CLA      0.015600
    126 H52        86.0492   54.3446   33.9860 dc         1 CLA      0.033200
    127 H51        85.2990   55.2670   32.7034 dc         1 CLA      0.033200
    128 H43        84.6464   52.3757   34.4026 dc         1 CLA      0.037000
    129 H42        82.9017   52.1886   34.1903 dc         1 CLA      0.037000
    130 H41        83.8389   52.2726   32.7726 dc         1 CLA      0.037000
    131 H3A        80.8038   60.3131   35.9278 dc         1 CLA      0.041100
    132 H2A        80.1412   57.6860   34.9082 dc         1 CLA      0.083100
    133 H2         82.4586   55.2728   35.0652 da         1 CLA      0.180900
    134 H18        85.5846   56.5111   45.4289 dc         1 CLA     -0.003900
    135 H13        84.0664   58.9857   41.6680 dc         1 CLA      0.019700
    136 H12        81.0350   55.0735   32.8451 dc         1 CLA      0.120400
    137 H11        82.6918   55.2931   32.0645 dc         1 CLA      0.120400
    138 C1         69.0532   61.7981   49.0544 Z1         2 LUT      0.509236
    139 C2         68.5493   62.3103   50.3841 Z2         2 LUT     -0.434695
    140 C3         67.0203   62.5033   50.4270 Z3         2 LUT      0.437453
    141 O3         66.4888   62.7815   51.6968 S1         2 LUT     -0.547129
    142 C4         66.5939   63.4763   49.3721 Z4         2 LUT     -0.468603
    143 C5         67.2425   63.2012   48.0202 Z5         2 LUT      0.279246
    144 C6         68.2875   62.3884   47.8729 Z6         2 LUT     -0.305473
    145 C7         68.8927   62.1500   46.4638 Z7         2 LUT      0.069402
    146 C8         70.1169   62.3004   45.9454 Z8         2 LUT     -0.191631
    147 C9         70.6927   62.0300   44.7060 Z9         2 LUT      0.196698
    148 C10        71.7839   62.7714   44.3487 Y1         2 LUT     -0.208611
    149 C11        72.5421   62.8189   43.0610 Y2         2 LUT      0.030784
    150 C12        73.6955   63.5994   42.9116 Y3         2 LUT     -0.220316
    151 C13        74.5730   63.7374   41.7547 Y4         2 LUT      0.215937
    152 C14        75.7998   64.4767   41.8445 Y5         2 LUT     -0.185793
    153 C15        76.9060   64.5689   40.8173 Y6         2 LUT     -0.057835
    154 C16        68.9018   60.2689   49.0898 Y7         2 LUT     -0.405615
    155 C17        70.5756   61.9459   49.1315 Y7         2 LUT     -0.405615
    156 C18        66.8384   64.2204   46.9991 Y9         2 LUT     -0.369639
    157 C19        69.9759   61.0201   43.8011 W1         2 LUT     -0.333362
    158 C20        74.1378   63.1460   40.4028 W2         2 LUT     -0.323439
    159 C21        87.9485   65.5287   34.5450 Z1         2 LUT      0.406104
    160 C22        88.6597   64.8479   33.3123 Z2         2 LUT     -0.404965
    161 C23        89.0941   65.8164   32.1907 Z3         2 LUT      0.391255
    162 O23        89.3290   64.9950   31.0643 S1         2 LUT     -0.528210
    163 C24        87.9523   66.8023   31.9443 W6         2 LUT     -0.258361
    164 C25        86.8740   66.9959   32.6838 Z5         2 LUT      0.133546
    165 C26        86.6168   66.1910   33.9794 W8         2 LUT     -0.147008
    166 C27        85.8283   66.8739   35.0475 Z7         2 LUT      0.023843
    167 C28        84.5726   66.4856   35.4743 Z8         2 LUT     -0.216987
    168 C29        83.9644   66.8341   36.7782 Z9         2 LUT      0.206524
    169 C30        82.8052   66.2625   37.2267 Y1         2 LUT     -0.215556
    170 C31        82.1681   66.5112   38.5037 Y2         2 LUT      0.025142
    171 C32        80.9755   65.9615   38.8729 Y3         2 LUT     -0.212209
    172 C33        80.1467   66.1640   40.0642 Y4         2 LUT      0.240937
    173 C34        78.9748   65.4538   40.0813 Y5         2 LUT     -0.218862
    174 C35        78.0506   65.2455   41.1033 Y6         2 LUT     -0.023547
    175 C36        88.9505   66.4950   35.2679 Y7         2 LUT     -0.393485
    176 C37        87.7414   64.3532   35.5537 Y7         2 LUT     -0.393485
    177 C38        85.9214   68.0485   32.2354 Y9         2 LUT     -0.387526
    178 C39        84.7073   67.9609   37.5106 W1         2 LUT     -0.322618
    179 C40        80.4885   67.3623   40.9583 W2         2 LUT     -0.358472
    180 H403       79.8488   67.3922   41.8798 R7         2 LUT      0.097720
    181 H402       81.4895   67.3742   41.3322 R7         2 LUT      0.097720
    182 H401       80.2208   68.3349   40.5171 R7         2 LUT      0.097720
    183 H393       85.7491   67.7517   37.7829 R4         2 LUT      0.082505
    184 H392       84.8223   68.8068   36.8660 R4         2 LUT      0.082505
    185 H391       84.1609   68.4320   38.3270 R4         2 LUT      0.082505
    186 H383       85.7028   68.1458   31.1996 R1         2 LUT      0.104030
    187 H382       85.0195   67.9968   32.7828 R1         2 LUT      0.104030
    188 H381       86.5107   68.9390   32.4081 R1         2 LUT      0.104030
    189 H373       88.7930   64.0335   35.9042 T4         2 LUT      0.089537
    190 H372       87.0927   64.7769   36.3521 T4         2 LUT      0.089537
    191 H371       87.2239   63.4958   35.0553 T4         2 LUT      0.089537
    192 H363       88.5710   66.9680   36.1229 T4         2 LUT      0.089537
    193 H362       89.9318   66.0214   35.4249 T4         2 LUT      0.089537
    194 H361       89.0517   67.2997   34.4979 T4         2 LUT      0.089537
    195 H222       89.5412   64.3356   33.7432 U2         2 LUT      0.127376
    196 H221       88.0656   64.0365   32.8606 U2         2 LUT      0.127376
    197 H203       74.0931   63.9850   39.6774 R7         2 LUT      0.087068
    198 H202       74.9364   62.5252   40.1344 R7         2 LUT      0.087068
    199 H201       73.2476   62.5669   40.3226 R7         2 LUT      0.087068
    200 H193       69.0019   61.3958   43.4318 R4         2 LUT      0.089716
    201 H192       70.5350   60.5968   42.9843 R4         2 LUT      0.089716
    202 H191       69.7890   60.1436   44.3689 R4         2 LUT      0.089716
    203 H183       67.3259   64.1658   46.0712 R1         2 LUT      0.094572
    204 H182       65.8542   63.9202   46.6869 R1         2 LUT      0.094572
    205 H181       66.7742   65.2578   47.3734 R1         2 LUT      0.094572
    206 H173       70.7576   63.0032   48.9677 T4         2 LUT      0.093752
    207 H172       70.9334   61.7687   50.1334 T4         2 LUT      0.093752
    208 H171       71.0971   61.3618   48.4358 T4         2 LUT      0.093752
    209 H163       67.9356   59.8642   49.4115 T4         2 LUT      0.093752
    210 H162       69.0430   59.8909   48.0516 T4         2 LUT      0.093752
    211 H161       69.5168   59.6827   49.7219 T4         2 LUT      0.093752
    212 HO3        66.5595   62.0919   52.3133 Q1         2 LUT      0.300121
    213 H8         70.7528   62.8285   46.6145 U7         2 LUT      0.080784
    214 H7         68.1724   61.8916   45.6372 U6         2 LUT      0.042190
    215 H42        65.5025   63.2775   49.3684 U5         2 LUT      0.145166
    216 H41        66.8292   64.5133   49.7561 U5         2 LUT      0.145166
    217 H35        78.0662   65.8398   42.0518 T3         2 LUT      0.077919
    218 H34        78.9191   64.7473   39.2603 T2         2 LUT      0.073626
    219 H32        80.5966   65.2713   38.1165 T1         2 LUT      0.092510
    220 H31        82.5671   67.3299   39.1551 U9         2 LUT      0.070048
    221 H30        82.3776   65.5007   36.6167 U8         2 LUT      0.085442
    222 H3         66.4669   61.6046   50.2113 U3         2 LUT     -0.031596
    223 H28        83.9826   65.7697   34.8490 U7         2 LUT      0.084728
    224 H27        86.4397   67.4981   35.7261 U6         2 LUT      0.087291
    225 H26        86.1357   65.2955   33.7341 Q6         2 LUT      0.075325
    226 H24        88.0201   67.3750   31.0385 Q5         2 LUT      0.094482
    227 H23        90.0857   66.3648   32.4190 U3         2 LUT     -0.024869
    228 H22        68.7999   61.6734   51.2252 U2         2 LUT      0.127376
    229 H21        68.9594   63.2740   50.6783 U2         2 LUT      0.127376
    230 H15        76.6886   64.1306   39.8457 T3         2 LUT      0.093200
    231 H14        76.0572   64.7840   42.8388 T2         2 LUT      0.068865
    232 H12        73.9319   64.1215   43.8669 T1         2 LUT      0.095507
    233 H11        72.1269   62.1135   42.2951 U9         2 LUT      0.068930
    234 H10        72.1202   63.4921   45.1147 U8         2 LUT      0.083911
    235 H1         89.6850   65.5568   30.3242 Q1         2 LUT      0.297311
@<TRIPOS>BOND
    1     6     1 1
    2     7     2 1
    3     8     3 1
    4     9     4 1
    5    11     4 1
    6    12     6 1
    7    13     9 1
    8    16     9 1
    9    25     5 1
   10    25    16 1
   11    26    10 1
   12    26    17 1
   13    27    18 1
   14    28    14 1
   15    28    19 1
   16    29    12 1
   17    30    13 1
   18    31    24 1
   19    32     1 1
   20    32    25 1
   21    33    21 1
   22    33    26 1
   23    34    22 1
   24    34    27 1
   25    35    23 1
   26    35    28 1
   27    36    12 1
   28    36    24 1
   29    37    13 1
   30    37    15 1
   31    38    31 1
   32    39    20 1
   33    39    32 1
   34    40     2 1
   35    40    33 1
   36    41     3 1
   37    41    34 1
   38    42     4 1
   39    42    35 1
   40    43    38 1
   41    44     5 1
   42    44    17 1
   43    44    39 1
   44    45    10 1
   45    45    18 1
   46    45    40 1
   47    46    19 1
   48    46    41 1
   49    47    14 1
   50    47    16 1
   51    47    42 1
   52    48    38 1
   53    49    48 1
   54    50    49 1
   55    51    50 1
   56    52    51 1
   57    53    51 1
   58    54    53 1
   59    55    54 1
   60    56    55 1
   61    57    56 1
   62    58    56 1
   63    59    58 1
   64    60    59 1
   65    61    60 1
   66    62    61 1
   67    63    61 1
   68    64    27 1
   69    64    46 1
   70    65     5 1
   71    65    10 1
   72    65    64 1
   73    65    14 1
   74    66    23 1
   75    67    23 1
   76    68    23 1
   77    69    22 1
   78    70    22 1
   79    71    22 1
   80    72    21 1
   81    73    21 1
   82    74    21 1
   83    75    20 1
   84    76    20 1
   85    77    20 1
   86    78    15 1
   87    79    15 1
   88    80    15 1
   89    81     8 1
   90    82     8 1
   91    83     8 1
   92    84     7 1
   93    85     7 1
   94    86     6 1
   95    87     6 1
   96    88     3 1
   97    89     3 1
   98    90     1 1
   99    91     1 1
  100    92    63 1
  101    93    63 1
  102    94    63 1
  103    95    62 1
  104    96    62 1
  105    97    62 1
  106    98    60 1
  107    99    60 1
  108   100    59 1
  109   101    59 1
  110   102    58 1
  111   103    58 1
  112   104    57 1
  113   105    57 1
  114   106    57 1
  115   107    55 1
  116   108    55 1
  117   109    54 1
  118   110    54 1
  119   111    53 1
  120   112    53 1
  121   113    19 1
  122   114    18 1
  123   115    17 1
  124   116     9 1
  125   117     2 1
  126   118    52 1
  127   119    52 1
  128   120    52 1
  129   121    51 1
  130   122    50 1
  131   123    50 1
  132   124    49 1
  133   125    49 1
  134   126    48 1
  135   127    48 1
  136   128    43 1
  137   129    43 1
  138   130    43 1
  139   131    39 1
  140   132    32 1
  141   133    31 1
  142   134    61 1
  143   135    56 1
  144   136    24 1
  145   137    24 1
  146   139   138 1
  147   140   139 1
  148   141   140 1
  149   142   140 1
  150   143   142 1
  151   144   138 1
  152   144   143 1
  153   145   144 1
  154   146   145 1
  155   147   146 1
  156   148   147 1
  157   149   148 1
  158   150   149 1
  159   151   150 1
  160   152   151 1
  161   153   152 1
  162   154   138 1
  163   155   138 1
  164   156   143 1
  165   157   147 1
  166   158   151 1
  167   160   159 1
  168   161   160 1
  169   162   161 1
  170   163   161 1
  171   164   163 1
  172   165   159 1
  173   165   164 1
  174   166   165 1
  175   167   166 1
  176   168   167 1
  177   169   168 1
  178   170   169 1
  179   171   170 1
  180   172   171 1
  181   173   172 1
  182   174   153 1
  183   174   173 1
  184   175   159 1
  185   176   159 1
  186   177   164 1
  187   178   168 1
  188   179   172 1
  189   180   179 1
  190   181   179 1
  191   182   179 1
  192   183   178 1
  193   184   178 1
  194   185   178 1
  195   186   177 1
  196   187   177 1
  197   188   177 1
  198   189   176 1
  199   190   176 1
  200   191   176 1
  201   192   175 1
  202   193   175 1
  203   194   175 1
  204   195   160 1
  205   196   160 1
  206   197   158 1
  207   198   158 1
  208   199   158 1
  209   200   157 1
  210   201   157 1
  211   202   157 1
  212   203   156 1
  213   204   156 1
  214   205   156 1
  215   206   155 1
  216   207   155 1
  217   208   155 1
  218   209   154 1
  219   210   154 1
  220   211   154 1
  221   212   141 1
  222   213   146 1
  223   214   145 1
  224   215   142 1
  225   216   142 1
  226   217   174 1
  227   218   173 1
  228   219   171 1
  229   220   170 1
  230   221   169 1
  231   222   140 1
  232   223   167 1
  233   224   166 1
  234   225   165 1
  235   226   163 1
  236   227   161 1
  237   228   139 1
  238   229   139 1
  239   230   153 1
  240   231   152 1
  241   232   150 1
  242   233   149 1
  243   234   148 1
  244   235   162 1
  245   65    153 1
  246   65    174 1
@<TRIPOS>SUBSTRUCTURE
      1 CLA               1 ****               0 ****  **** 
      2 LUT             138 ****               0 ****  **** 
