@<TRIPOS>MOLECULE
Cpptraj generated mol2 file.
  235   246     2     0     0
SMALL
USER_CHARGES


@<TRIPOS>ATOM
      1 CAA        79.5985   59.1368   34.1795 a2         1 CLA     -0.055900
      2 CAB        79.2218   62.7317   43.2161 c8         1 CLA     -0.148500
      3 CAC        72.4655   58.5293   42.7234 a2         1 CLA     -0.012600
      4 CAD        75.2824   56.4506   35.1997 ck         1 CLA      0.398800
      5 NA         78.4889   59.3278   37.5418 ns         1 CLA     -0.225500
      6 CBA        80.8177   58.8063   33.2866 a2         1 CLA     -0.135000
      7 CBB        80.3301   63.1596   43.8855 c0         1 CLA     -0.395200
      8 CBC        72.7202   57.0388   42.9853 a3         1 CLA     -0.037700
      9 CBD        76.7410   57.0172   34.9042 a1         1 CLA     -0.053900
     10 NB         78.2621   60.8008   40.1725 nm         1 CLA     -0.295700
     11 OBD        74.5858   55.7634   34.4707 o2         1 CLA     -0.494600
     12 CGA        81.2178   57.3653   32.9341 c4         1 CLA      0.827000
     13 CGD        77.6543   55.9366   34.5024 c4         1 CLA      0.655300
     14 ND         75.7174   58.4437   38.0873 nm         1 CLA     -0.291600
     15 CED        78.7523   53.8901   35.1184 a3         1 CLA      0.005400
     16 CHA        77.1444   57.8432   36.1313 cs         1 CLA     -0.123800
     17 CHB        80.2784   60.6356   38.7189 aa         1 CLA     -0.291900
     18 CHC        76.8847   60.9865   42.2543 aa         1 CLA     -0.090400
     19 CHD        73.7886   58.3016   39.6949 aa         1 CLA     -0.052000
     20 CMA        81.7942   58.3830   37.0899 a3         1 CLA     -0.230700
     21 CMB        81.4397   62.5673   41.0072 a3         1 CLA     -0.180800
     22 CMC        74.5113   60.4148   44.3332 a3         1 CLA     -0.134000
     23 CMD        72.5552   56.5055   37.4224 a3         1 CLA     -0.141100
     24 C1         81.8938   55.2105   33.6064 a2         1 CLA      0.023000
     25 C1A        78.3453   58.5357   36.4016 ac         1 CLA     -0.015100
     26 C1B        79.5823   61.1196   39.8492 cr         1 CLA      0.054700
     27 C1C        75.7733   60.2515   41.9231 cn         1 CLA     -0.005600
     28 C1D        74.4140   57.9694   38.4642 ap         1 CLA     -0.047300
     29 O1A        81.1008   56.9080   31.7943 o2         1 CLA     -0.610800
     30 O1D        78.4549   56.0303   33.5150 o2         1 CLA     -0.558200
     31 C2         82.5498   54.4595   34.7438 c8         1 CLA     -0.325100
     32 C2A        79.6488   58.5678   35.5654 a1         1 CLA      0.098600
     33 C2B        80.1882   61.8603   40.9666 cb         1 CLA      0.088500
     34 C2C        74.6339   59.9724   42.8494 cb         1 CLA      0.053700
     35 C2D        73.8588   57.1476   37.4259 cb         1 CLA      0.058900
     36 O2A        81.7843   56.5899   34.0164 o1         1 CLA     -0.437200
     37 O2D        77.7090   54.8924   35.4209 o1         1 CLA     -0.357600
     38 C3         83.4991   53.5821   34.5682 c5         1 CLA      0.031200
     39 C3A        80.7236   59.2373   36.5265 a1         1 CLA      0.166800
     40 C3B        79.2377   61.9653   41.9747 cb         1 CLA      0.035000
     41 C3C        73.7242   59.1957   42.1086 cb         1 CLA     -0.089900
     42 C3D        74.8820   57.0331   36.5210 cb         1 CLA     -0.035900
     43 C4         83.2244   52.1383   34.5818 a3         1 CLA     -0.053300
     44 C4A        79.7817   59.8441   37.6571 ac         1 CLA      0.001800
     45 C4B        78.0540   61.2380   41.4768 cn         1 CLA     -0.020900
     46 C4C        74.3019   59.0505   40.7568 cr         1 CLA     -0.044400
     47 C4D        76.0021   57.8616   36.9481 c6         1 CLA     -0.046000
     48 C5         84.9690   53.9737   34.4149 a2         1 CLA     -0.070400
     49 C6         85.4998   55.2262   35.0564 a2         1 CLA      0.043900
     50 C7         85.5012   55.0903   36.6094 a2         1 CLA     -0.150000
     51 C8         86.3124   56.2349   37.3486 a1         1 CLA      0.064200
     52 C9         87.7370   56.5272   36.7876 a3         1 CLA     -0.259300
     53 C10        86.3576   55.9465   38.8288 a2         1 CLA     -0.071900
     54 C11        86.5531   57.2463   39.6659 a2         1 CLA      0.014500
     55 C12        86.3399   56.9673   41.1641 a2         1 CLA     -0.112100
     56 C13        86.3242   58.2614   42.0685 a1         1 CLA      0.089200
     57 C14        87.6513   59.0415   41.9173 a3         1 CLA     -0.239100
     58 C15        86.1197   57.6886   43.5436 a2         1 CLA     -0.102200
     59 C16        85.9345   58.8019   44.6482 a2         1 CLA      0.023900
     60 C17        85.1733   58.1879   45.8619 a2         1 CLA     -0.105700
     61 C18        84.9552   59.1980   47.1303 a1         1 CLA      0.206800
     62 C19        84.1566   60.4834   46.7186 a3         1 CLA     -0.280100
     63 C20        84.2084   58.4595   48.1944 a3         1 CLA     -0.280100
     64 NC         75.5706   59.6660   40.6898 nx         1 CLA     -0.309200
     65 MG         76.9298   59.7157   39.0698 mg         1 CLA      0.895000
     66 HMD3       71.7983   57.2311   37.5633 dc         1 CLA      0.064300
     67 HMD2       72.5061   56.0824   36.3946 dc         1 CLA      0.064300
     68 HMD1       72.4955   55.7152   38.2170 dc         1 CLA      0.064300
     69 HMC3       74.6130   59.4443   44.8535 dc         1 CLA      0.052100
     70 HMC2       75.2641   61.0617   44.6596 dc         1 CLA      0.052100
     71 HMC1       73.4505   60.8826   44.3886 dc         1 CLA      0.052100
     72 HMB3       82.2783   62.0648   41.4871 dc         1 CLA      0.063600
     73 HMB2       81.7875   62.7982   40.0443 dc         1 CLA      0.063600
     74 HMB1       81.2008   63.5480   41.3703 dc         1 CLA      0.063600
     75 HMA3       82.3144   57.9202   36.2334 dc         1 CLA      0.058300
     76 HMA2       82.5620   58.9207   37.5872 dc         1 CLA      0.058300
     77 HMA1       81.4555   57.6298   37.7363 dc         1 CLA      0.058300
     78 HED3       78.4635   53.4099   34.2264 dc         1 CLA      0.079300
     79 HED2       79.7466   54.2514   35.2816 dc         1 CLA      0.079300
     80 HED1       78.7125   53.1067   35.8650 dc         1 CLA      0.079300
     81 HBC3       72.7252   56.4813   42.0369 dc         1 CLA      0.016300
     82 HBC2       73.6875   57.0382   43.5125 dc         1 CLA      0.016300
     83 HBC1       72.0854   56.5325   43.7236 dc         1 CLA      0.016300
     84 HBB2       80.3326   63.7227   44.8477 da         1 CLA      0.183000
     85 HBB1       81.3446   62.7987   43.6159 da         1 CLA      0.183000
     86 HBA2       80.6534   59.2104   32.2683 dc         1 CLA      0.029400
     87 HBA1       81.8384   59.2352   33.6048 dc         1 CLA      0.029400
     88 HAC2       72.3586   58.9273   43.7428 dc         1 CLA      0.029300
     89 HAC1       71.5096   58.7509   42.1981 dc         1 CLA      0.029300
     90 HAA2       78.7465   58.6204   33.6913 dc         1 CLA      0.028700
     91 HAA1       79.3235   60.1951   34.1130 dc         1 CLA      0.028700
     92 H203       84.7992   57.7343   48.7441 dc         1 CLA      0.065600
     93 H202       83.9062   59.2737   48.8313 dc         1 CLA      0.065600
     94 H201       83.3083   57.9546   47.8132 dc         1 CLA      0.065600
     95 H193       83.1509   60.2329   46.4073 dc         1 CLA      0.065600
     96 H192       84.2058   61.1198   47.5678 dc         1 CLA      0.065600
     97 H191       84.5723   61.0622   45.9212 dc         1 CLA      0.065600
     98 H172       84.2093   57.8369   45.4966 dc         1 CLA      0.027600
     99 H171       85.7170   57.3490   46.3710 dc         1 CLA      0.027600
    100 H162       86.8925   59.1503   45.0047 dc         1 CLA      0.002900
    101 H161       85.2725   59.5790   44.1116 dc         1 CLA      0.002900
    102 H152       85.2158   57.0342   43.5506 dc         1 CLA      0.029100
    103 H151       87.0178   57.1349   43.8918 dc         1 CLA      0.029100
    104 H143       87.7909   59.6997   42.7955 dc         1 CLA      0.063600
    105 H142       88.5442   58.5125   41.9067 dc         1 CLA      0.063600
    106 H141       87.5705   59.5998   40.9807 dc         1 CLA      0.063600
    107 H122       85.3521   56.4131   41.2053 dc         1 CLA      0.032500
    108 H121       87.2250   56.3603   41.3770 dc         1 CLA      0.032500
    109 H112       87.4986   57.6872   39.4024 dc         1 CLA      0.006600
    110 H111       85.7538   57.9921   39.3729 dc         1 CLA      0.006600
    111 H102       85.4554   55.3683   39.1056 dc         1 CLA      0.024100
    112 H101       87.2427   55.3366   39.0049 dc         1 CLA      0.024100
    113 HHD        72.7356   58.0706   39.8346 da         1 CLA      0.174300
    114 HHC        76.8648   61.3784   43.2240 da         1 CLA      0.136800
    115 HHB        81.3463   60.8315   38.6882 da         1 CLA      0.138300
    116 HBD        76.5658   57.6642   34.0784 dc         1 CLA      0.107700
    117 HAB        78.2198   62.9378   43.6332 da         1 CLA      0.155200
    118 H93        88.0102   57.4545   37.2599 dc         1 CLA      0.069500
    119 H92        88.5696   55.7873   36.7306 dc         1 CLA      0.069500
    120 H91        87.6769   56.8717   35.7182 dc         1 CLA      0.069500
    121 H8         85.7600   57.1400   37.0760 dc         1 CLA      0.029300
    122 H72        84.5076   55.0126   36.9157 dc         1 CLA      0.044400
    123 H71        86.1671   54.2338   36.9515 dc         1 CLA      0.044400
    124 H62        86.5924   55.2700   34.7243 dc         1 CLA      0.015600
    125 H61        84.9374   56.1206   34.6904 dc         1 CLA      0.015600
    126 H52        85.5861   53.2548   34.9515 dc         1 CLA      0.033200
    127 H51        85.0796   53.9300   33.3190 dc         1 CLA      0.033200
    128 H43        82.2094   51.8651   34.7329 dc         1 CLA      0.037000
    129 H42        83.3352   51.8903   33.5441 dc         1 CLA      0.037000
    130 H41        84.0192   51.5923   35.1915 dc         1 CLA      0.037000
    131 H3A        81.2680   60.0397   35.9657 dc         1 CLA      0.041100
    132 H2A        79.8627   57.5414   35.3476 dc         1 CLA      0.083100
    133 H2         82.2495   54.6057   35.8399 da         1 CLA      0.180900
    134 H18        85.9614   59.4324   47.4590 dc         1 CLA     -0.003900
    135 H13        85.5428   58.9532   41.8637 dc         1 CLA      0.019700
    136 H12        81.0000   54.6741   33.2578 dc         1 CLA      0.120400
    137 H11        82.4817   55.1659   32.7205 dc         1 CLA      0.120400
    138 C1         68.8925   62.0893   49.8263 Z1         2 LUT      0.509236
    139 C2         67.4744   61.9790   50.3882 Z2         2 LUT     -0.434695
    140 C3         66.5336   63.1738   50.3632 Z3         2 LUT      0.437453
    141 O3         66.1998   63.5117   51.7566 S1         2 LUT     -0.547129
    142 C4         66.9908   64.3250   49.4659 Z4         2 LUT     -0.468603
    143 C5         67.9010   63.9385   48.3792 Z5         2 LUT      0.279246
    144 C6         68.7486   62.8734   48.4993 Z6         2 LUT     -0.305473
    145 C7         69.3530   62.2617   47.2422 Z7         2 LUT      0.069402
    146 C8         70.2909   62.8483   46.4541 Z8         2 LUT     -0.191631
    147 C9         70.7881   62.5299   45.1414 Z9         2 LUT      0.196698
    148 C10        71.8653   63.3706   44.7196 Y1         2 LUT     -0.208611
    149 C11        72.7157   63.1864   43.5613 Y2         2 LUT      0.030784
    150 C12        73.7143   64.0333   43.2014 Y3         2 LUT     -0.220316
    151 C13        74.5621   63.8655   42.0857 Y4         2 LUT      0.215937
    152 C14        75.7122   64.5138   42.1985 Y5         2 LUT     -0.185793
    153 C15        76.8407   64.6190   41.3452 Y6         2 LUT     -0.057835
    154 C16        69.3744   60.6017   49.5672 Y7         2 LUT     -0.405615
    155 C17        69.7860   62.8886   50.8831 Y7         2 LUT     -0.405615
    156 C18        67.5219   64.5699   47.0461 Y9         2 LUT     -0.369639
    157 C19        70.2481   61.3449   44.5071 W1         2 LUT     -0.333362
    158 C20        73.9867   63.2597   40.7528 W2         2 LUT     -0.323439
    159 C21        88.3183   65.5202   34.9200 Z1         2 LUT      0.406104
    160 C22        88.9396   65.0322   33.6036 Z2         2 LUT     -0.404965
    161 C23        88.9588   66.0519   32.4844 Z3         2 LUT      0.391255
    162 O23        89.5035   65.3221   31.4224 S1         2 LUT     -0.528210
    163 C24        87.6326   66.6917   32.3176 W6         2 LUT     -0.258361
    164 C25        86.6266   66.6233   33.2690 Z5         2 LUT      0.133546
    165 C26        86.8172   65.9693   34.6402 W8         2 LUT     -0.147008
    166 C27        86.1784   66.5964   35.7439 Z7         2 LUT      0.023843
    167 C28        84.8578   66.3516   36.1898 Z8         2 LUT     -0.216987
    168 C29        84.2395   66.8973   37.4334 Z9         2 LUT      0.206524
    169 C30        83.1107   66.2738   37.8739 Y1         2 LUT     -0.215556
    170 C31        82.3514   66.4743   39.1207 Y2         2 LUT      0.025142
    171 C32        81.0840   65.9346   39.4884 Y3         2 LUT     -0.212209
    172 C33        80.2933   66.1277   40.6566 Y4         2 LUT      0.240937
    173 C34        79.0774   65.3995   40.5942 Y5         2 LUT     -0.218862
    174 C35        78.0278   65.3024   41.5561 Y6         2 LUT     -0.023547
    175 C36        89.2423   66.6512   35.3691 Y7         2 LUT     -0.393485
    176 C37        88.4265   64.4625   36.0554 Y7         2 LUT     -0.393485
    177 C38        85.2570   67.2011   32.8680 Y9         2 LUT     -0.387526
    178 C39        84.9752   68.0099   38.0929 W1         2 LUT     -0.322618
    179 C40        80.7828   67.0860   41.7112 W2         2 LUT     -0.358472
    180 H403       80.0091   67.1524   42.4968 R7         2 LUT      0.097720
    181 H402       81.7007   66.5721   42.1806 R7         2 LUT      0.097720
    182 H401       81.0478   68.0928   41.3960 R7         2 LUT      0.097720
    183 H393       84.3865   68.6221   38.7261 R4         2 LUT      0.082505
    184 H392       85.6141   67.6046   38.8201 R4         2 LUT      0.082505
    185 H391       85.6033   68.6095   37.3845 R4         2 LUT      0.082505
    186 H383       84.5843   66.3556   32.7336 R1         2 LUT      0.104030
    187 H382       84.8555   67.8115   33.7021 R1         2 LUT      0.104030
    188 H381       85.3669   67.7815   31.9248 R1         2 LUT      0.104030
    189 H373       87.7564   63.5771   35.9568 T4         2 LUT      0.089537
    190 H372       89.4137   64.1049   36.1502 T4         2 LUT      0.089537
    191 H371       88.1918   64.8458   36.9781 T4         2 LUT      0.089537
    192 H363       90.3501   66.4228   35.2880 T4         2 LUT      0.089537
    193 H362       89.0733   67.5904   34.7765 T4         2 LUT      0.089537
    194 H361       89.0948   66.9165   36.4801 T4         2 LUT      0.089537
    195 H222       90.0338   64.7451   33.7159 U2         2 LUT      0.127376
    196 H221       88.3656   64.1639   33.1699 U2         2 LUT      0.127376
    197 H203       73.7385   64.0690   40.0043 R7         2 LUT      0.087068
    198 H202       74.5734   62.6502   40.1348 R7         2 LUT      0.087068
    199 H201       73.0475   62.6529   40.8401 R7         2 LUT      0.087068
    200 H193       70.7672   61.0296   43.6179 R4         2 LUT      0.089716
    201 H192       70.1680   60.5367   45.1918 R4         2 LUT      0.089716
    202 H191       69.1998   61.3694   44.1717 R4         2 LUT      0.089716
    203 H183       67.1850   63.8125   46.3153 R1         2 LUT      0.094572
    204 H182       66.6612   65.3015   47.1996 R1         2 LUT      0.094572
    205 H181       68.3934   65.0929   46.6365 R1         2 LUT      0.094572
    206 H173       70.8353   63.1040   50.4778 T4         2 LUT      0.093752
    207 H172       69.3533   63.7013   51.3662 T4         2 LUT      0.093752
    208 H171       69.9593   62.1549   51.6863 T4         2 LUT      0.093752
    209 H163       68.8464   59.9277   48.9037 T4         2 LUT      0.093752
    210 H162       70.4634   60.6545   49.3028 T4         2 LUT      0.093752
    211 H161       69.4519   59.9455   50.4193 T4         2 LUT      0.093752
    212 HO3        65.7390   62.7930   52.2556 Q1         2 LUT      0.300121
    213 H8         70.7354   63.8825   46.6791 U7         2 LUT      0.080784
    214 H7         68.6801   61.5151   46.8862 U6         2 LUT      0.042190
    215 H42        66.1397   64.8598   49.2263 U5         2 LUT      0.145166
    216 H41        67.5389   64.9607   50.1750 U5         2 LUT      0.145166
    217 H35        78.0273   65.8172   42.5110 T3         2 LUT      0.077919
    218 H34        78.8083   64.9951   39.6411 T2         2 LUT      0.073626
    219 H32        80.7592   65.2742   38.6393 T1         2 LUT      0.092510
    220 H31        82.8263   67.2644   39.7529 U9         2 LUT      0.070048
    221 H30        82.7897   65.4616   37.2945 U8         2 LUT      0.085442
    222 H3         65.5102   62.8115   49.9878 U3         2 LUT     -0.031596
    223 H28        84.1764   65.7721   35.5889 U7         2 LUT      0.084728
    224 H27        86.7961   67.3203   36.2627 U6         2 LUT      0.087291
    225 H26        86.3796   64.9480   34.4301 Q6         2 LUT      0.075325
    226 H24        87.4989   67.2348   31.3473 Q5         2 LUT      0.094482
    227 H23        89.5994   66.9563   32.7494 U3         2 LUT     -0.024869
    228 H22        66.9814   61.3485   49.6012 U2         2 LUT      0.127376
    229 H21        67.5751   61.4840   51.3727 U2         2 LUT      0.127376
    230 H15        76.7067   64.0117   40.4279 T3         2 LUT      0.093200
    231 H14        75.8653   65.0662   43.1106 T2         2 LUT      0.068865
    232 H12        73.9872   64.6919   44.0411 T1         2 LUT      0.095507
    233 H11        72.5411   62.3415   42.9085 U9         2 LUT      0.068930
    234 H10        72.1129   64.2476   45.3352 U8         2 LUT      0.083911
    235 H1         89.5991   65.7948   30.5917 Q1         2 LUT      0.297311
@<TRIPOS>BOND
    1     6     1 1
    2     7     2 1
    3     8     3 1
    4     9     4 1
    5    11     4 1
    6    12     6 1
    7    13     9 1
    8    16     9 1
    9    25     5 1
   10    25    16 1
   11    26    10 1
   12    26    17 1
   13    27    18 1
   14    28    14 1
   15    28    19 1
   16    29    12 1
   17    30    13 1
   18    31    24 1
   19    32     1 1
   20    32    25 1
   21    33    21 1
   22    33    26 1
   23    34    22 1
   24    34    27 1
   25    35    23 1
   26    35    28 1
   27    36    12 1
   28    36    24 1
   29    37    13 1
   30    37    15 1
   31    38    31 1
   32    39    20 1
   33    39    32 1
   34    40     2 1
   35    40    33 1
   36    41     3 1
   37    41    34 1
   38    42     4 1
   39    42    35 1
   40    43    38 1
   41    44     5 1
   42    44    17 1
   43    44    39 1
   44    45    10 1
   45    45    18 1
   46    45    40 1
   47    46    19 1
   48    46    41 1
   49    47    14 1
   50    47    16 1
   51    47    42 1
   52    48    38 1
   53    49    48 1
   54    50    49 1
   55    51    50 1
   56    52    51 1
   57    53    51 1
   58    54    53 1
   59    55    54 1
   60    56    55 1
   61    57    56 1
   62    58    56 1
   63    59    58 1
   64    60    59 1
   65    61    60 1
   66    62    61 1
   67    63    61 1
   68    64    27 1
   69    64    46 1
   70    65     5 1
   71    65    10 1
   72    65    64 1
   73    65    14 1
   74    66    23 1
   75    67    23 1
   76    68    23 1
   77    69    22 1
   78    70    22 1
   79    71    22 1
   80    72    21 1
   81    73    21 1
   82    74    21 1
   83    75    20 1
   84    76    20 1
   85    77    20 1
   86    78    15 1
   87    79    15 1
   88    80    15 1
   89    81     8 1
   90    82     8 1
   91    83     8 1
   92    84     7 1
   93    85     7 1
   94    86     6 1
   95    87     6 1
   96    88     3 1
   97    89     3 1
   98    90     1 1
   99    91     1 1
  100    92    63 1
  101    93    63 1
  102    94    63 1
  103    95    62 1
  104    96    62 1
  105    97    62 1
  106    98    60 1
  107    99    60 1
  108   100    59 1
  109   101    59 1
  110   102    58 1
  111   103    58 1
  112   104    57 1
  113   105    57 1
  114   106    57 1
  115   107    55 1
  116   108    55 1
  117   109    54 1
  118   110    54 1
  119   111    53 1
  120   112    53 1
  121   113    19 1
  122   114    18 1
  123   115    17 1
  124   116     9 1
  125   117     2 1
  126   118    52 1
  127   119    52 1
  128   120    52 1
  129   121    51 1
  130   122    50 1
  131   123    50 1
  132   124    49 1
  133   125    49 1
  134   126    48 1
  135   127    48 1
  136   128    43 1
  137   129    43 1
  138   130    43 1
  139   131    39 1
  140   132    32 1
  141   133    31 1
  142   134    61 1
  143   135    56 1
  144   136    24 1
  145   137    24 1
  146   139   138 1
  147   140   139 1
  148   141   140 1
  149   142   140 1
  150   143   142 1
  151   144   138 1
  152   144   143 1
  153   145   144 1
  154   146   145 1
  155   147   146 1
  156   148   147 1
  157   149   148 1
  158   150   149 1
  159   151   150 1
  160   152   151 1
  161   153   152 1
  162   154   138 1
  163   155   138 1
  164   156   143 1
  165   157   147 1
  166   158   151 1
  167   160   159 1
  168   161   160 1
  169   162   161 1
  170   163   161 1
  171   164   163 1
  172   165   159 1
  173   165   164 1
  174   166   165 1
  175   167   166 1
  176   168   167 1
  177   169   168 1
  178   170   169 1
  179   171   170 1
  180   172   171 1
  181   173   172 1
  182   174   153 1
  183   174   173 1
  184   175   159 1
  185   176   159 1
  186   177   164 1
  187   178   168 1
  188   179   172 1
  189   180   179 1
  190   181   179 1
  191   182   179 1
  192   183   178 1
  193   184   178 1
  194   185   178 1
  195   186   177 1
  196   187   177 1
  197   188   177 1
  198   189   176 1
  199   190   176 1
  200   191   176 1
  201   192   175 1
  202   193   175 1
  203   194   175 1
  204   195   160 1
  205   196   160 1
  206   197   158 1
  207   198   158 1
  208   199   158 1
  209   200   157 1
  210   201   157 1
  211   202   157 1
  212   203   156 1
  213   204   156 1
  214   205   156 1
  215   206   155 1
  216   207   155 1
  217   208   155 1
  218   209   154 1
  219   210   154 1
  220   211   154 1
  221   212   141 1
  222   213   146 1
  223   214   145 1
  224   215   142 1
  225   216   142 1
  226   217   174 1
  227   218   173 1
  228   219   171 1
  229   220   170 1
  230   221   169 1
  231   222   140 1
  232   223   167 1
  233   224   166 1
  234   225   165 1
  235   226   163 1
  236   227   161 1
  237   228   139 1
  238   229   139 1
  239   230   153 1
  240   231   152 1
  241   232   150 1
  242   233   149 1
  243   234   148 1
  244   235   162 1
  245   65    153 1
  246   65    174 1
@<TRIPOS>SUBSTRUCTURE
      1 CLA               1 ****               0 ****  **** 
      2 LUT             138 ****               0 ****  **** 
