@<TRIPOS>MOLECULE
Cpptraj generated mol2 file.
  235   246     2     0     0
SMALL
USER_CHARGES


@<TRIPOS>ATOM
      1 CAA        78.8376   57.8751   34.7205 a2         1 CLA     -0.055900
      2 CAB        78.0483   61.5310   43.9076 c8         1 CLA     -0.148500
      3 CAC        71.5578   56.7416   42.8821 a2         1 CLA     -0.012600
      4 CAD        74.6882   55.1886   35.4684 ck         1 CLA      0.398800
      5 NA         77.5915   58.1205   38.1154 ns         1 CLA     -0.225500
      6 CBA        80.2268   57.7452   34.0001 a2         1 CLA     -0.135000
      7 CBB        79.1641   61.9591   44.5136 c0         1 CLA     -0.395200
      8 CBC        71.8212   55.2672   42.8199 a3         1 CLA     -0.037700
      9 CBD        76.1062   55.7732   35.2173 a1         1 CLA     -0.053900
     10 NB         77.2527   59.5951   40.8348 nm         1 CLA     -0.295700
     11 OBD        74.2524   54.4115   34.6710 o2         1 CLA     -0.494600
     12 CGA        80.9096   56.3933   33.8243 c4         1 CLA      0.827000
     13 CGD        77.1529   54.7235   35.1445 c4         1 CLA      0.655300
     14 ND         74.8042   57.0252   38.4668 nm         1 CLA     -0.291600
     15 CED        77.5949   52.5849   35.9977 a3         1 CLA      0.005400
     16 CHA        76.3581   56.6939   36.4510 cs         1 CLA     -0.123800
     17 CHB        79.2225   59.5990   39.3065 aa         1 CLA     -0.291900
     18 CHC        75.7264   59.7094   42.7343 aa         1 CLA     -0.090400
     19 CHD        72.8569   56.7786   39.9081 aa         1 CLA     -0.052000
     20 CMA        81.0084   57.6601   37.7727 a3         1 CLA     -0.230700
     21 CMB        80.3831   61.4737   41.4617 a3         1 CLA     -0.180800
     22 CMC        73.2975   58.8933   44.6856 a3         1 CLA     -0.134000
     23 CMD        71.8474   54.9403   37.4378 a3         1 CLA     -0.141100
     24 C1         81.1301   54.3734   35.1919 a2         1 CLA      0.023000
     25 C1A        77.5087   57.4893   36.8579 ac         1 CLA     -0.015100
     26 C1B        78.5255   59.9772   40.5024 cr         1 CLA      0.054700
     27 C1C        74.6236   58.9342   42.3250 cn         1 CLA     -0.005600
     28 C1D        73.5624   56.5251   38.7095 ap         1 CLA     -0.047300
     29 O1A        80.9180   55.7260   32.7474 o2         1 CLA     -0.610800
     30 O1D        77.9209   54.6327   34.2137 o2         1 CLA     -0.558200
     31 C2         80.9557   54.0514   36.5912 c8         1 CLA     -0.325100
     32 C2A        78.8729   57.4468   36.2169 a1         1 CLA      0.098600
     33 C2B        79.0985   60.7456   41.6295 cb         1 CLA      0.088500
     34 C2C        73.4884   58.4651   43.1980 cb         1 CLA      0.053700
     35 C2D        73.1553   55.6279   37.5987 cb         1 CLA      0.058900
     36 O2A        81.1529   55.7829   35.0532 o1         1 CLA     -0.437200
     37 O2D        77.0470   53.8788   36.1358 o1         1 CLA     -0.357600
     38 C3         81.7211   53.1399   37.1847 c5         1 CLA      0.031200
     39 C3A        79.6979   58.2804   37.1966 a1         1 CLA      0.166800
     40 C3B        78.0371   60.8900   42.5989 cb         1 CLA      0.035000
     41 C3C        72.6531   57.6061   42.3640 cb         1 CLA     -0.089900
     42 C3D        74.2229   55.6935   36.7264 cb         1 CLA     -0.035900
     43 C4         81.2995   51.6903   37.1162 a3         1 CLA     -0.053300
     44 C4A        78.7820   58.7272   38.2706 ac         1 CLA      0.001800
     45 C4B        76.9229   60.0390   42.0800 cn         1 CLA     -0.020900
     46 C4C        73.2890   57.5956   41.0734 cr         1 CLA     -0.044400
     47 C4D        75.2038   56.5542   37.2702 c6         1 CLA     -0.046000
     48 C5         82.9450   53.5120   38.0727 a2         1 CLA     -0.070400
     49 C6         83.6521   54.8642   37.8680 a2         1 CLA      0.043900
     50 C7         84.6560   55.1143   39.0035 a2         1 CLA     -0.150000
     51 C8         85.4699   56.4306   38.9219 a1         1 CLA      0.064200
     52 C9         86.7790   56.0826   38.1995 a3         1 CLA     -0.259300
     53 C10        85.6625   57.0495   40.3649 a2         1 CLA     -0.071900
     54 C11        84.4201   57.6131   40.9636 a2         1 CLA      0.014500
     55 C12        84.7133   58.4896   42.2271 a2         1 CLA     -0.112100
     56 C13        85.2758   57.8609   43.6250 a1         1 CLA      0.089200
     57 C14        84.3305   56.7604   44.0628 a3         1 CLA     -0.239100
     58 C15        85.5400   59.0569   44.7093 a2         1 CLA     -0.102200
     59 C16        84.4812   60.0015   45.0686 a2         1 CLA      0.023900
     60 C17        85.0737   60.8754   46.2199 a2         1 CLA     -0.105700
     61 C18        84.0815   61.9450   46.9149 a1         1 CLA      0.206800
     62 C19        83.0200   61.2214   47.8844 a3         1 CLA     -0.280100
     63 C20        84.9535   63.0393   47.5862 a3         1 CLA     -0.280100
     64 NC         74.4414   58.3606   41.0773 nx         1 CLA     -0.309200
     65 MG         75.9361   58.4290   39.5223 mg         1 CLA      0.895000
     66 HMD3       72.1012   54.1908   36.6991 dc         1 CLA      0.064300
     67 HMD2       71.4960   54.4666   38.3417 dc         1 CLA      0.064300
     68 HMD1       71.0493   55.6283   37.0316 dc         1 CLA      0.064300
     69 HMC3       73.1241   59.9113   44.5820 dc         1 CLA      0.052100
     70 HMC2       72.3337   58.4876   45.1023 dc         1 CLA      0.052100
     71 HMC1       74.0984   58.5191   45.3382 dc         1 CLA      0.052100
     72 HMB3       80.7429   61.6039   40.4517 dc         1 CLA      0.063600
     73 HMB2       80.2757   62.5001   41.8369 dc         1 CLA      0.063600
     74 HMB1       81.1265   60.8671   41.8728 dc         1 CLA      0.063600
     75 HMA3       81.5582   58.3589   38.3903 dc         1 CLA      0.058300
     76 HMA2       80.7088   56.7431   38.2763 dc         1 CLA      0.058300
     77 HMA1       81.6543   57.2929   36.9548 dc         1 CLA      0.058300
     78 HED3       77.7641   52.0670   36.9921 dc         1 CLA      0.079300
     79 HED2       77.0369   52.0121   35.3159 dc         1 CLA      0.079300
     80 HED1       78.5551   52.5848   35.4799 dc         1 CLA      0.079300
     81 HBC3       72.6756   55.0422   43.4608 dc         1 CLA      0.016300
     82 HBC2       70.9372   54.9376   43.3540 dc         1 CLA      0.016300
     83 HBC1       71.9002   54.7434   41.8374 dc         1 CLA      0.016300
     84 HBB2       79.1504   62.2679   45.6126 da         1 CLA      0.183000
     85 HBB1       80.1466   61.8449   44.0959 da         1 CLA      0.183000
     86 HBA2       80.2831   58.1985   33.0731 dc         1 CLA      0.029400
     87 HBA1       80.8519   58.3151   34.5651 dc         1 CLA      0.029400
     88 HAC2       71.3230   57.0601   43.9166 dc         1 CLA      0.029300
     89 HAC1       70.7136   57.1074   42.3899 dc         1 CLA      0.029300
     90 HAA2       78.2966   57.1413   34.2126 dc         1 CLA      0.028700
     91 HAA1       78.6019   58.9225   34.6175 dc         1 CLA      0.028700
     92 H203       84.2534   63.7720   47.9716 dc         1 CLA      0.065600
     93 H202       85.5628   62.6565   48.3905 dc         1 CLA      0.065600
     94 H201       85.5139   63.5393   46.8446 dc         1 CLA      0.065600
     95 H193       83.5204   60.7742   48.7223 dc         1 CLA      0.065600
     96 H192       82.6489   62.1456   48.2599 dc         1 CLA      0.065600
     97 H191       82.3893   60.5057   47.3515 dc         1 CLA      0.065600
     98 H172       85.3847   60.2533   47.0971 dc         1 CLA      0.027600
     99 H171       85.8526   61.4321   45.8461 dc         1 CLA      0.027600
    100 H162       84.3401   60.6439   44.1597 dc         1 CLA      0.002900
    101 H161       83.4694   59.5896   45.2853 dc         1 CLA      0.002900
    102 H152       85.8600   58.5121   45.5684 dc         1 CLA      0.029100
    103 H151       86.3762   59.6370   44.3842 dc         1 CLA      0.029100
    104 H143       84.7337   56.0078   43.3435 dc         1 CLA      0.063600
    105 H142       84.5239   56.3142   45.0144 dc         1 CLA      0.063600
    106 H141       83.3048   57.0929   43.9768 dc         1 CLA      0.063600
    107 H122       85.4652   59.1751   41.7946 dc         1 CLA      0.032500
    108 H121       83.7979   58.9784   42.5039 dc         1 CLA      0.032500
    109 H112       83.9922   58.2580   40.2594 dc         1 CLA      0.006600
    110 H111       83.7889   56.8252   41.3168 dc         1 CLA      0.006600
    111 H102       86.3130   56.3271   40.9467 dc         1 CLA      0.024100
    112 H101       86.2550   57.9639   40.0800 dc         1 CLA      0.024100
    113 HHD        71.8369   56.3109   40.0700 da         1 CLA      0.174300
    114 HHC        75.6359   60.0514   43.7923 da         1 CLA      0.136800
    115 HHB        80.2122   59.9243   39.3111 da         1 CLA      0.138300
    116 HBD        75.9609   56.3268   34.2661 dc         1 CLA      0.107700
    117 HAB        77.0950   61.6843   44.4306 da         1 CLA      0.155200
    118 H93        86.7445   55.4622   37.2962 dc         1 CLA      0.069500
    119 H92        87.1396   57.0781   37.9874 dc         1 CLA      0.069500
    120 H91        87.4159   55.5231   38.8887 dc         1 CLA      0.069500
    121 H8         84.9829   57.1667   38.3043 dc         1 CLA      0.029300
    122 H72        84.0168   55.1567   39.8736 dc         1 CLA      0.044400
    123 H71        85.2723   54.2656   39.0911 dc         1 CLA      0.044400
    124 H62        84.1832   55.0006   36.9389 dc         1 CLA      0.015600
    125 H61        82.8409   55.6423   37.8274 dc         1 CLA      0.015600
    126 H52        82.6250   53.3132   39.1116 dc         1 CLA      0.033200
    127 H51        83.7554   52.8281   37.7847 dc         1 CLA      0.033200
    128 H43        80.6515   51.5725   36.2456 dc         1 CLA      0.037000
    129 H42        82.1674   51.0772   36.8954 dc         1 CLA      0.037000
    130 H41        80.7709   51.2522   38.0280 dc         1 CLA      0.037000
    131 H3A        80.0257   59.1666   36.6986 dc         1 CLA      0.041100
    132 H2A        79.2249   56.3962   36.2766 dc         1 CLA      0.083100
    133 H2         80.1393   54.5426   37.0784 da         1 CLA      0.180900
    134 H18        83.5937   62.5016   46.1135 dc         1 CLA     -0.003900
    135 H13        86.2670   57.3796   43.4123 dc         1 CLA      0.019700
    136 H12        80.2535   54.1892   34.5604 dc         1 CLA      0.120400
    137 H11        82.0135   53.9515   34.7709 dc         1 CLA      0.120400
    138 C1         68.3056   60.0267   50.2353 Z1         2 LUT      0.509236
    139 C2         67.0219   59.9413   51.1253 Z2         2 LUT     -0.434695
    140 C3         66.2908   61.2786   51.4259 Z3         2 LUT      0.437453
    141 O3         66.6680   61.9967   52.5768 S1         2 LUT     -0.547129
    142 C4         66.4061   62.2482   50.3251 Z4         2 LUT     -0.468603
    143 C5         67.1405   61.8468   49.0185 Z5         2 LUT      0.279246
    144 C6         67.9967   60.8354   48.9815 Z6         2 LUT     -0.305473
    145 C7         68.5508   60.3664   47.7060 Z7         2 LUT      0.069402
    146 C8         69.2963   61.0897   46.8974 Z8         2 LUT     -0.191631
    147 C9         69.9642   60.7468   45.6176 Z9         2 LUT      0.196698
    148 C10        70.8334   61.6869   45.1531 Y1         2 LUT     -0.208611
    149 C11        71.5235   61.7640   43.8936 Y2         2 LUT      0.030784
    150 C12        72.5082   62.7158   43.6530 Y3         2 LUT     -0.220316
    151 C13        73.4784   62.7225   42.5730 Y4         2 LUT      0.215937
    152 C14        74.6135   63.4853   42.6849 Y5         2 LUT     -0.185793
    153 C15        75.6106   63.7336   41.7290 Y6         2 LUT     -0.057835
    154 C16        68.8863   58.6041   49.9365 Y7         2 LUT     -0.405615
    155 C17        69.2160   60.8335   51.0189 Y7         2 LUT     -0.405615
    156 C18        66.6112   62.7009   47.8715 Y9         2 LUT     -0.369639
    157 C19        69.4584   59.5363   44.8939 W1         2 LUT     -0.333362
    158 C20        73.1954   61.9880   41.3074 W2         2 LUT     -0.323439
    159 C21        86.8663   65.4537   35.7975 Z1         2 LUT      0.406104
    160 C22        87.6741   64.9497   34.5719 Z2         2 LUT     -0.404965
    161 C23        87.7947   65.8947   33.3566 Z3         2 LUT      0.391255
    162 O23        88.2317   64.9966   32.3160 S1         2 LUT     -0.528210
    163 C24        86.4254   66.5344   33.0829 W6         2 LUT     -0.258361
    164 C25        85.3627   66.5233   33.8961 Z5         2 LUT      0.133546
    165 C26        85.3506   65.7727   35.2176 W8         2 LUT     -0.147008
    166 C27        84.4927   66.5082   36.2541 Z7         2 LUT      0.023843
    167 C28        83.3740   66.0621   36.8228 Z8         2 LUT     -0.216987
    168 C29        82.7152   66.3140   38.0797 Z9         2 LUT      0.206524
    169 C30        81.8688   65.3393   38.5073 Y1         2 LUT     -0.215556
    170 C31        81.1442   65.2424   39.6778 Y2         2 LUT      0.025142
    171 C32        79.9620   64.5618   39.8542 Y3         2 LUT     -0.212209
    172 C33        79.0947   64.6307   41.0270 Y4         2 LUT      0.240937
    173 C34        77.8695   64.0935   41.0698 Y5         2 LUT     -0.218862
    174 C35        76.8451   64.2648   42.0441 Y6         2 LUT     -0.023547
    175 C36        87.5981   66.7102   36.2818 Y7         2 LUT     -0.393485
    176 C37        86.9009   64.3845   36.8921 Y7         2 LUT     -0.393485
    177 C38        83.9468   67.0930   33.5013 Y9         2 LUT     -0.387526
    178 C39        82.9528   67.5555   38.8692 W1         2 LUT     -0.322618
    179 C40        79.4492   65.6516   42.1647 W2         2 LUT     -0.358472
    180 H403       78.8126   65.5769   43.0918 R7         2 LUT      0.097720
    181 H402       80.4864   65.5940   42.5115 R7         2 LUT      0.097720
    182 H401       79.2754   66.7151   41.9668 R7         2 LUT      0.097720
    183 H393       81.9830   68.0643   38.9916 R4         2 LUT      0.082505
    184 H392       83.5518   67.4788   39.8221 R4         2 LUT      0.082505
    185 H391       83.5678   68.2262   38.3472 R4         2 LUT      0.082505
    186 H383       83.9242   67.1198   32.4389 R1         2 LUT      0.104030
    187 H382       83.1482   66.4713   33.8710 R1         2 LUT      0.104030
    188 H381       83.8461   68.0967   33.8554 R1         2 LUT      0.104030
    189 H373       87.8900   63.9364   36.8880 T4         2 LUT      0.089537
    190 H372       86.6915   64.7884   37.9092 T4         2 LUT      0.089537
    191 H371       86.1901   63.5181   36.5634 T4         2 LUT      0.089537
    192 H363       88.5461   66.5304   36.6712 T4         2 LUT      0.089537
    193 H362       87.8235   67.5147   35.5033 T4         2 LUT      0.089537
    194 H361       87.0526   67.2536   37.0436 T4         2 LUT      0.089537
    195 H222       88.6696   64.6592   34.8168 U2         2 LUT      0.127376
    196 H221       87.2816   63.9533   34.1927 U2         2 LUT      0.127376
    197 H203       72.2456   61.5194   41.2403 R7         2 LUT      0.087068
    198 H202       73.1331   62.7144   40.5554 R7         2 LUT      0.087068
    199 H201       74.0026   61.3599   40.9785 R7         2 LUT      0.087068
    200 H193       69.2551   58.7014   45.5285 R4         2 LUT      0.089716
    201 H192       68.4224   59.6072   44.4760 R4         2 LUT      0.089716
    202 H191       70.1168   59.1937   44.0487 R4         2 LUT      0.089716
    203 H183       65.5384   62.8565   47.7971 R1         2 LUT      0.094572
    204 H182       67.1760   63.5975   47.9823 R1         2 LUT      0.094572
    205 H181       67.0139   62.3123   46.8750 R1         2 LUT      0.094572
    206 H173       70.0153   61.0746   50.3556 T4         2 LUT      0.093752
    207 H172       69.0739   61.9136   51.3654 T4         2 LUT      0.093752
    208 H171       69.7419   60.3169   51.7573 T4         2 LUT      0.093752
    209 H163       68.1412   58.0520   49.2597 T4         2 LUT      0.093752
    210 H162       69.8767   58.6796   49.3987 T4         2 LUT      0.093752
    211 H161       69.0620   58.1496   50.8876 T4         2 LUT      0.093752
    212 HO3        66.3326   61.5494   53.3643 Q1         2 LUT      0.300121
    213 H8         69.6221   62.1008   47.2372 U7         2 LUT      0.080784
    214 H7         68.3122   59.3519   47.4133 U6         2 LUT      0.042190
    215 H42        65.3933   62.5310   50.0477 U5         2 LUT      0.145166
    216 H41        66.9726   63.1102   50.6188 U5         2 LUT      0.145166
    217 H35        77.1326   64.5387   43.0260 T3         2 LUT      0.077919
    218 H34        77.6497   63.4988   40.2013 T2         2 LUT      0.073626
    219 H32        79.5036   64.0295   38.9763 T1         2 LUT      0.092510
    220 H31        81.5084   65.8858   40.5716 U9         2 LUT      0.070048
    221 H30        81.6984   64.4697   37.8588 U8         2 LUT      0.085442
    222 H3         65.2168   60.9556   51.3999 U3         2 LUT     -0.031596
    223 H28        82.9986   65.0832   36.3786 U7         2 LUT      0.084728
    224 H27        84.9315   67.2360   36.8576 U6         2 LUT      0.087291
    225 H26        84.9042   64.7922   34.9679 Q6         2 LUT      0.075325
    226 H24        86.3616   67.0244   32.1355 Q5         2 LUT      0.094482
    227 H23        88.5117   66.6813   33.5951 U3         2 LUT     -0.024869
    228 H22        66.3085   59.2471   50.6828 U2         2 LUT      0.127376
    229 H21        67.2827   59.4004   52.0157 U2         2 LUT      0.127376
    230 H15        75.4701   63.1766   40.7654 T3         2 LUT      0.093200
    231 H14        74.7802   63.9553   43.6950 T2         2 LUT      0.068865
    232 H12        72.6396   63.4873   44.4074 T1         2 LUT      0.095507
    233 H11        71.4292   60.9389   43.1810 U9         2 LUT      0.068930
    234 H10        71.0938   62.4843   45.8724 U8         2 LUT      0.083911
    235 H1         88.3079   65.4952   31.5035 Q1         2 LUT      0.297311
@<TRIPOS>BOND
    1     6     1 1
    2     7     2 1
    3     8     3 1
    4     9     4 1
    5    11     4 1
    6    12     6 1
    7    13     9 1
    8    16     9 1
    9    25     5 1
   10    25    16 1
   11    26    10 1
   12    26    17 1
   13    27    18 1
   14    28    14 1
   15    28    19 1
   16    29    12 1
   17    30    13 1
   18    31    24 1
   19    32     1 1
   20    32    25 1
   21    33    21 1
   22    33    26 1
   23    34    22 1
   24    34    27 1
   25    35    23 1
   26    35    28 1
   27    36    12 1
   28    36    24 1
   29    37    13 1
   30    37    15 1
   31    38    31 1
   32    39    20 1
   33    39    32 1
   34    40     2 1
   35    40    33 1
   36    41     3 1
   37    41    34 1
   38    42     4 1
   39    42    35 1
   40    43    38 1
   41    44     5 1
   42    44    17 1
   43    44    39 1
   44    45    10 1
   45    45    18 1
   46    45    40 1
   47    46    19 1
   48    46    41 1
   49    47    14 1
   50    47    16 1
   51    47    42 1
   52    48    38 1
   53    49    48 1
   54    50    49 1
   55    51    50 1
   56    52    51 1
   57    53    51 1
   58    54    53 1
   59    55    54 1
   60    56    55 1
   61    57    56 1
   62    58    56 1
   63    59    58 1
   64    60    59 1
   65    61    60 1
   66    62    61 1
   67    63    61 1
   68    64    27 1
   69    64    46 1
   70    65     5 1
   71    65    10 1
   72    65    64 1
   73    65    14 1
   74    66    23 1
   75    67    23 1
   76    68    23 1
   77    69    22 1
   78    70    22 1
   79    71    22 1
   80    72    21 1
   81    73    21 1
   82    74    21 1
   83    75    20 1
   84    76    20 1
   85    77    20 1
   86    78    15 1
   87    79    15 1
   88    80    15 1
   89    81     8 1
   90    82     8 1
   91    83     8 1
   92    84     7 1
   93    85     7 1
   94    86     6 1
   95    87     6 1
   96    88     3 1
   97    89     3 1
   98    90     1 1
   99    91     1 1
  100    92    63 1
  101    93    63 1
  102    94    63 1
  103    95    62 1
  104    96    62 1
  105    97    62 1
  106    98    60 1
  107    99    60 1
  108   100    59 1
  109   101    59 1
  110   102    58 1
  111   103    58 1
  112   104    57 1
  113   105    57 1
  114   106    57 1
  115   107    55 1
  116   108    55 1
  117   109    54 1
  118   110    54 1
  119   111    53 1
  120   112    53 1
  121   113    19 1
  122   114    18 1
  123   115    17 1
  124   116     9 1
  125   117     2 1
  126   118    52 1
  127   119    52 1
  128   120    52 1
  129   121    51 1
  130   122    50 1
  131   123    50 1
  132   124    49 1
  133   125    49 1
  134   126    48 1
  135   127    48 1
  136   128    43 1
  137   129    43 1
  138   130    43 1
  139   131    39 1
  140   132    32 1
  141   133    31 1
  142   134    61 1
  143   135    56 1
  144   136    24 1
  145   137    24 1
  146   139   138 1
  147   140   139 1
  148   141   140 1
  149   142   140 1
  150   143   142 1
  151   144   138 1
  152   144   143 1
  153   145   144 1
  154   146   145 1
  155   147   146 1
  156   148   147 1
  157   149   148 1
  158   150   149 1
  159   151   150 1
  160   152   151 1
  161   153   152 1
  162   154   138 1
  163   155   138 1
  164   156   143 1
  165   157   147 1
  166   158   151 1
  167   160   159 1
  168   161   160 1
  169   162   161 1
  170   163   161 1
  171   164   163 1
  172   165   159 1
  173   165   164 1
  174   166   165 1
  175   167   166 1
  176   168   167 1
  177   169   168 1
  178   170   169 1
  179   171   170 1
  180   172   171 1
  181   173   172 1
  182   174   153 1
  183   174   173 1
  184   175   159 1
  185   176   159 1
  186   177   164 1
  187   178   168 1
  188   179   172 1
  189   180   179 1
  190   181   179 1
  191   182   179 1
  192   183   178 1
  193   184   178 1
  194   185   178 1
  195   186   177 1
  196   187   177 1
  197   188   177 1
  198   189   176 1
  199   190   176 1
  200   191   176 1
  201   192   175 1
  202   193   175 1
  203   194   175 1
  204   195   160 1
  205   196   160 1
  206   197   158 1
  207   198   158 1
  208   199   158 1
  209   200   157 1
  210   201   157 1
  211   202   157 1
  212   203   156 1
  213   204   156 1
  214   205   156 1
  215   206   155 1
  216   207   155 1
  217   208   155 1
  218   209   154 1
  219   210   154 1
  220   211   154 1
  221   212   141 1
  222   213   146 1
  223   214   145 1
  224   215   142 1
  225   216   142 1
  226   217   174 1
  227   218   173 1
  228   219   171 1
  229   220   170 1
  230   221   169 1
  231   222   140 1
  232   223   167 1
  233   224   166 1
  234   225   165 1
  235   226   163 1
  236   227   161 1
  237   228   139 1
  238   229   139 1
  239   230   153 1
  240   231   152 1
  241   232   150 1
  242   233   149 1
  243   234   148 1
  244   235   162 1
  245   65    153 1
  246   65    174 1
@<TRIPOS>SUBSTRUCTURE
      1 CLA               1 ****               0 ****  **** 
      2 LUT             138 ****               0 ****  **** 
