@<TRIPOS>MOLECULE
Cpptraj generated mol2 file.
  235   246     2     0     0
SMALL
USER_CHARGES


@<TRIPOS>ATOM
      1 CAA        77.9396   57.6463   35.4533 a2         1 CLA     -0.055900
      2 CAB        78.2151   61.8601   44.0402 c8         1 CLA     -0.148500
      3 CAC        70.9099   58.3571   43.5390 a2         1 CLA     -0.012600
      4 CAD        73.7215   55.1671   36.7648 ck         1 CLA      0.398800
      5 NA         76.9223   58.3976   38.6793 ns         1 CLA     -0.225500
      6 CBA        79.1610   57.7735   34.5786 a2         1 CLA     -0.135000
      7 CBB        79.3982   61.9903   44.6186 c0         1 CLA     -0.395200
      8 CBC        70.9185   56.8118   43.6736 a3         1 CLA     -0.037700
      9 CBD        75.3138   55.4715   36.5505 a1         1 CLA     -0.053900
     10 NB         76.7720   60.1896   40.9887 nm         1 CLA     -0.295700
     11 OBD        73.1387   54.2575   36.1935 o2         1 CLA     -0.494600
     12 CGA        79.9160   56.4119   34.3605 c4         1 CLA      0.827000
     13 CGD        76.2804   54.2669   36.8455 c4         1 CLA      0.655300
     14 ND         74.0617   57.6672   39.1490 nm         1 CLA     -0.291600
     15 CED        77.0034   52.8131   38.5941 a3         1 CLA      0.005400
     16 CHA        75.6083   56.6095   37.5751 cs         1 CLA     -0.123800
     17 CHB        78.7459   59.7678   39.6367 aa         1 CLA     -0.291900
     18 CHC        75.4773   60.5645   43.1027 aa         1 CLA     -0.090400
     19 CHD        72.1307   57.8873   40.6776 aa         1 CLA     -0.052000
     20 CMA        80.1120   57.2902   38.6936 a3         1 CLA     -0.230700
     21 CMB        80.2238   61.6659   41.5329 a3         1 CLA     -0.180800
     22 CMC        73.1181   60.2288   45.1170 a3         1 CLA     -0.134000
     23 CMD        70.8198   55.9317   38.5647 a3         1 CLA     -0.141100
     24 C1         81.0776   54.6719   35.5068 a2         1 CLA      0.023000
     25 C1A        76.8015   57.4072   37.7897 ac         1 CLA     -0.015100
     26 C1B        78.1027   60.4547   40.6421 cr         1 CLA      0.054700
     27 C1C        74.2580   59.9142   42.7573 cn         1 CLA     -0.005600
     28 C1D        72.7356   57.3844   39.4853 ap         1 CLA     -0.047300
     29 O1A        80.0127   55.8113   33.2983 o2         1 CLA     -0.610800
     30 O1D        77.0079   53.6922   36.0302 o2         1 CLA     -0.558200
     31 C2         80.9985   53.9643   36.8598 c8         1 CLA     -0.325100
     32 C2A        78.1219   57.2210   36.9775 a1         1 CLA      0.098600
     33 C2B        78.8178   61.1520   41.6581 cb         1 CLA      0.088500
     34 C2C        73.1437   59.7373   43.6362 cb         1 CLA      0.053700
     35 C2D        72.2721   56.3166   38.6808 cb         1 CLA      0.058900
     36 O2A        80.5121   56.0548   35.5521 o1         1 CLA     -0.437200
     37 O2D        76.1463   53.9094   38.1793 o1         1 CLA     -0.357600
     38 C3         82.1218   53.6822   37.6048 c5         1 CLA      0.031200
     39 C3A        79.1424   58.1208   37.7813 a1         1 CLA      0.166800
     40 C3B        77.9326   61.2284   42.7204 cb         1 CLA      0.035000
     41 C3C        72.2209   58.9516   42.9661 cb         1 CLA     -0.089900
     42 C3D        73.2916   55.9672   37.8314 cb         1 CLA     -0.035900
     43 C4         83.0814   52.5085   37.2601 a3         1 CLA     -0.053300
     44 C4A        78.2163   58.8859   38.6908 ac         1 CLA      0.001800
     45 C4B        76.6761   60.6283   42.3085 cn         1 CLA     -0.020900
     46 C4C        72.7395   58.7867   41.5955 cr         1 CLA     -0.044400
     47 C4D        74.3506   56.8579   38.1546 c6         1 CLA     -0.046000
     48 C5         82.4846   54.7658   38.6105 a2         1 CLA     -0.070400
     49 C6         83.5977   54.4974   39.5023 a2         1 CLA      0.043900
     50 C7         83.9855   55.6903   40.4189 a2         1 CLA     -0.150000
     51 C8         84.4956   56.9895   39.6734 a1         1 CLA      0.064200
     52 C9         85.6781   56.6729   38.7922 a3         1 CLA     -0.259300
     53 C10        84.9295   57.9888   40.7886 a2         1 CLA     -0.071900
     54 C11        83.8009   58.4215   41.7545 a2         1 CLA      0.014500
     55 C12        84.1889   59.4362   42.8200 a2         1 CLA     -0.112100
     56 C13        85.3701   59.0286   43.8278 a1         1 CLA      0.089200
     57 C14        84.9285   57.7858   44.5735 a3         1 CLA     -0.239100
     58 C15        85.6092   60.2243   44.8168 a2         1 CLA     -0.102200
     59 C16        84.4498   60.5300   45.8472 a2         1 CLA      0.023900
     60 C17        84.8226   61.9093   46.4232 a2         1 CLA     -0.105700
     61 C18        83.8939   62.3682   47.5907 a1         1 CLA      0.206800
     62 C19        82.5215   62.8543   47.1260 a3         1 CLA     -0.280100
     63 C20        83.6946   61.3214   48.6853 a3         1 CLA     -0.280100
     64 NC         74.0387   59.3696   41.5261 nx         1 CLA     -0.309200
     65 MG         75.4468   59.0643   40.0308 mg         1 CLA      0.895000
     66 HMD3       70.6518   55.1242   37.8005 dc         1 CLA      0.064300
     67 HMD2       70.5071   55.6767   39.5526 dc         1 CLA      0.064300
     68 HMD1       70.3395   56.8455   38.3280 dc         1 CLA      0.064300
     69 HMC3       73.9108   59.6120   45.6205 dc         1 CLA      0.052100
     70 HMC2       73.3508   61.2972   45.1415 dc         1 CLA      0.052100
     71 HMC1       72.2381   60.0929   45.5924 dc         1 CLA      0.052100
     72 HMB3       80.8856   60.8544   41.9015 dc         1 CLA      0.063600
     73 HMB2       80.5517   61.9054   40.4655 dc         1 CLA      0.063600
     74 HMB1       80.3419   62.5154   42.1557 dc         1 CLA      0.063600
     75 HMA3       80.9538   57.9684   39.0233 dc         1 CLA      0.058300
     76 HMA2       79.7197   56.8255   39.5249 dc         1 CLA      0.058300
     77 HMA1       80.5703   56.5738   38.0457 dc         1 CLA      0.058300
     78 HED3       76.6251   52.5495   39.5933 dc         1 CLA      0.079300
     79 HED2       76.9731   51.9431   37.9637 dc         1 CLA      0.079300
     80 HED1       78.1112   53.0495   38.6493 dc         1 CLA      0.079300
     81 HBC3       71.7395   56.4381   44.3622 dc         1 CLA      0.016300
     82 HBC2       70.0277   56.5754   44.2939 dc         1 CLA      0.016300
     83 HBC1       70.9941   56.2117   42.7719 dc         1 CLA      0.016300
     84 HBB2       79.4685   62.4643   45.6100 da         1 CLA      0.183000
     85 HBB1       80.3116   61.4712   44.1941 da         1 CLA      0.183000
     86 HBA2       78.8596   58.0898   33.5640 dc         1 CLA      0.029400
     87 HBA1       79.8331   58.6100   34.8230 dc         1 CLA      0.029400
     88 HAC2       70.6915   58.8324   44.5308 dc         1 CLA      0.029300
     89 HAC1       70.1167   58.6156   42.8586 dc         1 CLA      0.029300
     90 HAA2       77.1504   57.1743   34.9520 dc         1 CLA      0.028700
     91 HAA1       77.6115   58.6930   35.5014 dc         1 CLA      0.028700
     92 H203       82.9411   60.5931   48.3122 dc         1 CLA      0.065600
     93 H202       84.6923   60.9409   48.8234 dc         1 CLA      0.065600
     94 H201       83.1465   61.8538   49.4919 dc         1 CLA      0.065600
     95 H193       82.6850   63.5439   46.2368 dc         1 CLA      0.065600
     96 H192       81.8713   62.0618   46.7237 dc         1 CLA      0.065600
     97 H191       82.0535   63.5510   47.8724 dc         1 CLA      0.065600
     98 H172       85.8569   61.9394   46.7568 dc         1 CLA      0.027600
     99 H171       84.8168   62.6599   45.6286 dc         1 CLA      0.027600
    100 H162       83.4673   60.6069   45.4427 dc         1 CLA      0.002900
    101 H161       84.4357   59.7403   46.6112 dc         1 CLA      0.002900
    102 H152       86.4263   59.8549   45.3226 dc         1 CLA      0.029100
    103 H151       85.8518   61.0474   44.1921 dc         1 CLA      0.029100
    104 H143       83.8771   57.8324   44.7132 dc         1 CLA      0.063600
    105 H142       85.1120   56.9143   43.9185 dc         1 CLA      0.063600
    106 H141       85.4894   57.5623   45.5485 dc         1 CLA      0.063600
    107 H122       84.5823   60.3123   42.2003 dc         1 CLA      0.032500
    108 H121       83.2665   59.6114   43.3794 dc         1 CLA      0.032500
    109 H112       82.9816   58.8678   41.1599 dc         1 CLA      0.006600
    110 H111       83.4524   57.6032   42.3516 dc         1 CLA      0.006600
    111 H102       85.7601   57.5795   41.4193 dc         1 CLA      0.024100
    112 H101       85.2240   58.8672   40.1890 dc         1 CLA      0.024100
    113 HHD        71.1827   57.4554   40.9619 da         1 CLA      0.174300
    114 HHC        75.6873   60.7577   44.1679 da         1 CLA      0.136800
    115 HHB        79.8069   59.9824   39.6172 da         1 CLA      0.138300
    116 HBD        75.3015   55.7630   35.5018 dc         1 CLA      0.107700
    117 HAB        77.3335   62.3239   44.4931 da         1 CLA      0.155200
    118 H93        86.5897   56.4274   39.3218 dc         1 CLA      0.069500
    119 H92        85.4545   55.9412   37.9401 dc         1 CLA      0.069500
    120 H91        85.9543   57.6352   38.3958 dc         1 CLA      0.069500
    121 H8         83.7440   57.6302   39.2354 dc         1 CLA      0.029300
    122 H72        83.0574   55.9667   40.9403 dc         1 CLA      0.044400
    123 H71        84.7121   55.3033   41.0862 dc         1 CLA      0.044400
    124 H62        83.2826   53.7282   40.1206 dc         1 CLA      0.015600
    125 H61        84.4486   54.1879   38.8236 dc         1 CLA      0.015600
    126 H52        82.4792   55.7916   38.1655 dc         1 CLA      0.033200
    127 H51        81.6290   54.7992   39.2589 dc         1 CLA      0.033200
    128 H43        84.0262   52.9106   37.0443 dc         1 CLA      0.037000
    129 H42        83.0008   51.7862   38.0718 dc         1 CLA      0.037000
    130 H41        82.6317   52.0065   36.3950 dc         1 CLA      0.037000
    131 H3A        79.6603   58.8001   37.1913 dc         1 CLA      0.041100
    132 H2A        78.3577   56.1381   37.0821 dc         1 CLA      0.083100
    133 H2         80.0195   53.5486   36.9829 da         1 CLA      0.180900
    134 H18        84.3851   63.2958   47.8647 dc         1 CLA     -0.003900
    135 H13        86.2591   58.8866   43.2336 dc         1 CLA      0.019700
    136 H12        80.4190   54.0818   34.7876 dc         1 CLA      0.120400
    137 H11        82.0597   54.6471   35.0648 dc         1 CLA      0.120400
    138 C1         67.4916   62.2692   51.1793 Z1         2 LUT      0.509236
    139 C2         67.6038   63.6958   51.8121 Z2         2 LUT     -0.434695
    140 C3         66.3500   64.5970   51.7947 Z3         2 LUT      0.437453
    141 O3         66.7448   65.9966   51.8781 S1         2 LUT     -0.547129
    142 C4         65.5561   64.4467   50.5561 Z4         2 LUT     -0.468603
    143 C5         66.1786   63.5734   49.4941 Z5         2 LUT      0.279246
    144 C6         67.0715   62.5724   49.7788 Z6         2 LUT     -0.305473
    145 C7         67.8957   62.0316   48.6255 Z7         2 LUT      0.069402
    146 C8         68.7277   62.7596   47.8010 Z8         2 LUT     -0.191631
    147 C9         69.2215   62.3838   46.4491 Z9         2 LUT      0.196698
    148 C10        70.2148   63.1366   45.8710 Y1         2 LUT     -0.208611
    149 C11        70.8553   62.9673   44.5806 Y2         2 LUT      0.030784
    150 C12        72.0203   63.5147   44.0330 Y3         2 LUT     -0.220316
    151 C13        72.7042   63.2606   42.7601 Y4         2 LUT      0.215937
    152 C14        73.9284   63.8859   42.5892 Y5         2 LUT     -0.185793
    153 C15        74.8651   63.7185   41.4721 Y6         2 LUT     -0.057835
    154 C16        66.4221   61.4255   51.9269 Y7         2 LUT     -0.405615
    155 C17        68.8740   61.7099   51.4060 Y7         2 LUT     -0.405615
    156 C18        65.8803   64.1391   48.0499 Y9         2 LUT     -0.369639
    157 C19        68.5954   61.2203   45.6910 W1         2 LUT     -0.333362
    158 C20        72.0779   62.6471   41.5122 W2         2 LUT     -0.323439
    159 C21        86.5322   64.8136   35.0392 Z1         2 LUT      0.406104
    160 C22        87.0960   64.3576   33.7335 Z2         2 LUT     -0.404965
    161 C23        87.1072   65.3564   32.5837 Z3         2 LUT      0.391255
    162 O23        87.8064   64.6483   31.5758 S1         2 LUT     -0.528210
    163 C24        85.7444   65.9102   32.4492 W6         2 LUT     -0.258361
    164 C25        84.8316   65.9658   33.4448 Z5         2 LUT      0.133546
    165 C26        85.0703   65.2378   34.8715 W8         2 LUT     -0.147008
    166 C27        84.4096   65.9993   36.0005 Z7         2 LUT      0.023843
    167 C28        83.1381   65.6302   36.3187 Z8         2 LUT     -0.216987
    168 C29        82.4796   66.0479   37.5960 Z9         2 LUT      0.206524
    169 C30        81.3442   65.3189   38.0554 Y1         2 LUT     -0.215556
    170 C31        80.5366   65.5717   39.2310 Y2         2 LUT      0.025142
    171 C32        79.2298   65.0552   39.4101 Y3         2 LUT     -0.212209
    172 C33        78.2703   65.2454   40.4816 Y4         2 LUT      0.240937
    173 C34        77.1247   64.4480   40.5221 Y5         2 LUT     -0.218862
    174 C35        76.0188   64.5191   41.3459 Y6         2 LUT     -0.023547
    175 C36        87.5290   65.8587   35.5413 Y7         2 LUT     -0.393485
    176 C37        86.7084   63.6922   36.1017 Y7         2 LUT     -0.393485
    177 C38        83.5080   66.8037   33.1948 Y9         2 LUT     -0.387526
    178 C39        83.0379   67.2199   38.4082 W1         2 LUT     -0.322618
    179 C40        78.8236   65.8848   41.7134 W2         2 LUT     -0.358472
    180 H403       79.1921   66.8706   41.3618 R7         2 LUT      0.097720
    181 H402       78.1029   66.1813   42.5289 R7         2 LUT      0.097720
    182 H401       79.6471   65.3208   42.1382 R7         2 LUT      0.097720
    183 H393       82.1894   67.7772   38.8477 R4         2 LUT      0.082505
    184 H392       83.7306   66.9803   39.1645 R4         2 LUT      0.082505
    185 H391       83.5863   68.0118   37.7954 R4         2 LUT      0.082505
    186 H383       83.4662   67.6812   33.8543 R1         2 LUT      0.104030
    187 H382       83.6176   67.3064   32.2264 R1         2 LUT      0.104030
    188 H381       82.5721   66.1880   33.3278 R1         2 LUT      0.104030
    189 H373       86.0837   63.9099   37.0060 T4         2 LUT      0.089537
    190 H372       86.2762   62.7601   35.8519 T4         2 LUT      0.089537
    191 H371       87.6809   63.4210   36.2734 T4         2 LUT      0.089537
    192 H363       87.4221   66.7279   34.9516 T4         2 LUT      0.089537
    193 H362       87.2964   66.0095   36.6013 T4         2 LUT      0.089537
    194 H361       88.5886   65.6554   35.5448 T4         2 LUT      0.089537
    195 H222       88.1381   63.9625   33.7836 U2         2 LUT      0.127376
    196 H221       86.4631   63.4613   33.4858 U2         2 LUT      0.127376
    197 H203       72.1504   61.5804   41.6291 R7         2 LUT      0.087068
    198 H202       70.9839   62.7018   41.4409 R7         2 LUT      0.087068
    199 H201       72.5518   62.7850   40.5455 R7         2 LUT      0.087068
    200 H193       69.1587   60.2837   45.8974 R4         2 LUT      0.089716
    201 H192       67.6414   60.9832   46.1181 R4         2 LUT      0.089716
    202 H191       68.5174   61.2154   44.6336 R4         2 LUT      0.089716
    203 H183       66.4149   65.1250   47.9611 R1         2 LUT      0.094572
    204 H182       66.2062   63.4441   47.1895 R1         2 LUT      0.094572
    205 H181       64.7912   64.2845   47.8197 R1         2 LUT      0.094572
    206 H173       68.9745   60.6629   51.1021 T4         2 LUT      0.093752
    207 H172       69.6501   62.2858   50.8376 T4         2 LUT      0.093752
    208 H171       69.0840   61.6726   52.5261 T4         2 LUT      0.093752
    209 H163       66.2601   60.3388   51.6450 T4         2 LUT      0.093752
    210 H162       66.8519   61.3328   52.9342 T4         2 LUT      0.093752
    211 H161       65.3656   61.8689   51.9126 T4         2 LUT      0.093752
    212 HO3        66.0555   66.5228   52.3029 Q1         2 LUT      0.300121
    213 H8         68.9091   63.8090   48.0303 U7         2 LUT      0.080784
    214 H7         67.6999   61.0151   48.3455 U6         2 LUT      0.042190
    215 H42        64.6203   63.9150   50.9358 U5         2 LUT      0.145166
    216 H41        65.0914   65.4040   50.1898 U5         2 LUT      0.145166
    217 H35        76.0089   65.3401   42.0568 T3         2 LUT      0.077919
    218 H34        77.1564   63.6282   39.8099 T2         2 LUT      0.073626
    219 H32        78.8590   64.3790   38.5726 T1         2 LUT      0.092510
    220 H31        80.8930   66.2592   40.0176 U9         2 LUT      0.070048
    221 H30        80.9117   64.5621   37.3705 U8         2 LUT      0.085442
    222 H3         65.6731   64.2186   52.5667 U3         2 LUT     -0.031596
    223 H28        82.7292   64.7337   35.9349 U7         2 LUT      0.084728
    224 H27        85.0123   66.6969   36.4974 U6         2 LUT      0.087291
    225 H26        84.5482   64.2727   34.7664 Q6         2 LUT      0.075325
    226 H24        85.6305   66.4094   31.4652 Q5         2 LUT      0.094482
    227 H23        87.7389   66.1886   32.8760 U3         2 LUT     -0.024869
    228 H22        67.9154   63.6442   52.8474 U2         2 LUT      0.127376
    229 H21        68.5003   64.3376   51.4769 U2         2 LUT      0.127376
    230 H15        74.7919   62.8848   40.8076 T3         2 LUT      0.093200
    231 H14        74.3730   64.3808   43.3913 T2         2 LUT      0.068865
    232 H12        72.5081   64.2232   44.6133 T1         2 LUT      0.095507
    233 H11        70.4123   62.2110   43.9600 U9         2 LUT      0.068930
    234 H10        70.6343   63.8528   46.5909 U8         2 LUT      0.083911
    235 H1         87.1870   64.3632   30.9035 Q1         2 LUT      0.297311
@<TRIPOS>BOND
    1     6     1 1
    2     7     2 1
    3     8     3 1
    4     9     4 1
    5    11     4 1
    6    12     6 1
    7    13     9 1
    8    16     9 1
    9    25     5 1
   10    25    16 1
   11    26    10 1
   12    26    17 1
   13    27    18 1
   14    28    14 1
   15    28    19 1
   16    29    12 1
   17    30    13 1
   18    31    24 1
   19    32     1 1
   20    32    25 1
   21    33    21 1
   22    33    26 1
   23    34    22 1
   24    34    27 1
   25    35    23 1
   26    35    28 1
   27    36    12 1
   28    36    24 1
   29    37    13 1
   30    37    15 1
   31    38    31 1
   32    39    20 1
   33    39    32 1
   34    40     2 1
   35    40    33 1
   36    41     3 1
   37    41    34 1
   38    42     4 1
   39    42    35 1
   40    43    38 1
   41    44     5 1
   42    44    17 1
   43    44    39 1
   44    45    10 1
   45    45    18 1
   46    45    40 1
   47    46    19 1
   48    46    41 1
   49    47    14 1
   50    47    16 1
   51    47    42 1
   52    48    38 1
   53    49    48 1
   54    50    49 1
   55    51    50 1
   56    52    51 1
   57    53    51 1
   58    54    53 1
   59    55    54 1
   60    56    55 1
   61    57    56 1
   62    58    56 1
   63    59    58 1
   64    60    59 1
   65    61    60 1
   66    62    61 1
   67    63    61 1
   68    64    27 1
   69    64    46 1
   70    65     5 1
   71    65    10 1
   72    65    64 1
   73    65    14 1
   74    66    23 1
   75    67    23 1
   76    68    23 1
   77    69    22 1
   78    70    22 1
   79    71    22 1
   80    72    21 1
   81    73    21 1
   82    74    21 1
   83    75    20 1
   84    76    20 1
   85    77    20 1
   86    78    15 1
   87    79    15 1
   88    80    15 1
   89    81     8 1
   90    82     8 1
   91    83     8 1
   92    84     7 1
   93    85     7 1
   94    86     6 1
   95    87     6 1
   96    88     3 1
   97    89     3 1
   98    90     1 1
   99    91     1 1
  100    92    63 1
  101    93    63 1
  102    94    63 1
  103    95    62 1
  104    96    62 1
  105    97    62 1
  106    98    60 1
  107    99    60 1
  108   100    59 1
  109   101    59 1
  110   102    58 1
  111   103    58 1
  112   104    57 1
  113   105    57 1
  114   106    57 1
  115   107    55 1
  116   108    55 1
  117   109    54 1
  118   110    54 1
  119   111    53 1
  120   112    53 1
  121   113    19 1
  122   114    18 1
  123   115    17 1
  124   116     9 1
  125   117     2 1
  126   118    52 1
  127   119    52 1
  128   120    52 1
  129   121    51 1
  130   122    50 1
  131   123    50 1
  132   124    49 1
  133   125    49 1
  134   126    48 1
  135   127    48 1
  136   128    43 1
  137   129    43 1
  138   130    43 1
  139   131    39 1
  140   132    32 1
  141   133    31 1
  142   134    61 1
  143   135    56 1
  144   136    24 1
  145   137    24 1
  146   139   138 1
  147   140   139 1
  148   141   140 1
  149   142   140 1
  150   143   142 1
  151   144   138 1
  152   144   143 1
  153   145   144 1
  154   146   145 1
  155   147   146 1
  156   148   147 1
  157   149   148 1
  158   150   149 1
  159   151   150 1
  160   152   151 1
  161   153   152 1
  162   154   138 1
  163   155   138 1
  164   156   143 1
  165   157   147 1
  166   158   151 1
  167   160   159 1
  168   161   160 1
  169   162   161 1
  170   163   161 1
  171   164   163 1
  172   165   159 1
  173   165   164 1
  174   166   165 1
  175   167   166 1
  176   168   167 1
  177   169   168 1
  178   170   169 1
  179   171   170 1
  180   172   171 1
  181   173   172 1
  182   174   153 1
  183   174   173 1
  184   175   159 1
  185   176   159 1
  186   177   164 1
  187   178   168 1
  188   179   172 1
  189   180   179 1
  190   181   179 1
  191   182   179 1
  192   183   178 1
  193   184   178 1
  194   185   178 1
  195   186   177 1
  196   187   177 1
  197   188   177 1
  198   189   176 1
  199   190   176 1
  200   191   176 1
  201   192   175 1
  202   193   175 1
  203   194   175 1
  204   195   160 1
  205   196   160 1
  206   197   158 1
  207   198   158 1
  208   199   158 1
  209   200   157 1
  210   201   157 1
  211   202   157 1
  212   203   156 1
  213   204   156 1
  214   205   156 1
  215   206   155 1
  216   207   155 1
  217   208   155 1
  218   209   154 1
  219   210   154 1
  220   211   154 1
  221   212   141 1
  222   213   146 1
  223   214   145 1
  224   215   142 1
  225   216   142 1
  226   217   174 1
  227   218   173 1
  228   219   171 1
  229   220   170 1
  230   221   169 1
  231   222   140 1
  232   223   167 1
  233   224   166 1
  234   225   165 1
  235   226   163 1
  236   227   161 1
  237   228   139 1
  238   229   139 1
  239   230   153 1
  240   231   152 1
  241   232   150 1
  242   233   149 1
  243   234   148 1
  244   235   162 1
  245   65    153 1
  246   65    174 1
@<TRIPOS>SUBSTRUCTURE
      1 CLA               1 ****               0 ****  **** 
      2 LUT             138 ****               0 ****  **** 
