@<TRIPOS>MOLECULE
Cpptraj generated mol2 file.
  235   246     2     0     0
SMALL
USER_CHARGES


@<TRIPOS>ATOM
      1 CAA        78.4959   57.4076   34.9866 a2         1 CLA     -0.055900
      2 CAB        77.5580   60.8185   43.9627 c8         1 CLA     -0.148500
      3 CAC        70.9749   56.3960   42.9462 a2         1 CLA     -0.012600
      4 CAD        74.0369   54.8424   35.6189 ck         1 CLA      0.398800
      5 NA         77.1218   57.6316   38.2760 ns         1 CLA     -0.225500
      6 CBA        79.8750   57.3125   34.3358 a2         1 CLA     -0.135000
      7 CBB        78.5433   61.6016   44.4995 c0         1 CLA     -0.395200
      8 CBC        71.3002   54.9404   43.1077 a3         1 CLA     -0.037700
      9 CBD        75.5740   55.3312   35.5191 a1         1 CLA     -0.053900
     10 NB         76.7410   59.1311   40.8128 nm         1 CLA     -0.295700
     11 OBD        73.3659   54.2223   34.8131 o2         1 CLA     -0.494600
     12 CGA        80.4724   56.0000   33.9117 c4         1 CLA      0.827000
     13 CGD        76.5474   54.1628   35.2955 c4         1 CLA      0.655300
     14 ND         74.2767   56.8010   38.5966 nm         1 CLA     -0.291600
     15 CED        77.2248   51.9872   36.0017 a3         1 CLA      0.005400
     16 CHA        75.8677   56.1736   36.7877 cs         1 CLA     -0.123800
     17 CHB        78.7805   59.0512   39.3569 aa         1 CLA     -0.291900
     18 CHC        75.2850   59.1585   42.8160 aa         1 CLA     -0.090400
     19 CHD        72.2491   56.6638   40.0380 aa         1 CLA     -0.052000
     20 CMA        80.4441   56.4632   38.1258 a3         1 CLA     -0.230700
     21 CMB        79.7795   61.3112   41.4261 a3         1 CLA     -0.180800
     22 CMC        72.9295   58.2561   44.7928 a3         1 CLA     -0.134000
     23 CMD        71.3197   54.8413   37.5983 a3         1 CLA     -0.141100
     24 C1         81.0066   53.9155   35.0444 a2         1 CLA      0.023000
     25 C1A        77.0731   56.8840   37.1248 ac         1 CLA     -0.015100
     26 C1B        78.0374   59.5488   40.5224 cr         1 CLA      0.054700
     27 C1C        74.1081   58.4761   42.4266 cn         1 CLA     -0.005600
     28 C1D        73.0045   56.2776   38.9028 ap         1 CLA     -0.047300
     29 O1A        80.0994   55.3630   32.9530 o2         1 CLA     -0.610800
     30 O1D        77.3310   54.1471   34.3550 o2         1 CLA     -0.558200
     31 C2         80.8213   53.5673   36.5194 c8         1 CLA     -0.325100
     32 C2A        78.4628   56.8384   36.4411 a1         1 CLA      0.098600
     33 C2B        78.5277   60.4872   41.5032 cb         1 CLA      0.088500
     34 C2C        73.0329   58.0144   43.2768 cb         1 CLA      0.053700
     35 C2D        72.6379   55.4903   37.7442 cb         1 CLA      0.058900
     36 O2A        81.0932   55.3408   34.9530 o1         1 CLA     -0.437200
     37 O2D        76.4680   53.1874   36.2435 o1         1 CLA     -0.357600
     38 C3         81.7228   52.8260   37.2002 c5         1 CLA      0.031200
     39 C3A        79.4118   57.4755   37.4597 a1         1 CLA      0.166800
     40 C3B        77.6011   60.3382   42.5906 cb         1 CLA      0.035000
     41 C3C        72.2071   57.1990   42.5679 cb         1 CLA     -0.089900
     42 C3D        73.6723   55.4097   36.8728 cb         1 CLA     -0.035900
     43 C4         81.7756   51.2888   37.2093 a3         1 CLA     -0.053300
     44 C4A        78.3703   58.1037   38.4355 ac         1 CLA      0.001800
     45 C4B        76.4541   59.5021   42.1263 cn         1 CLA     -0.020900
     46 C4C        72.7799   57.2770   41.1998 cr         1 CLA     -0.044400
     47 C4D        74.6658   56.2246   37.4483 c6         1 CLA     -0.046000
     48 C5         82.5600   53.5581   38.2579 a2         1 CLA     -0.070400
     49 C6         83.6038   54.5853   37.7963 a2         1 CLA      0.043900
     50 C7         84.1130   55.4425   38.9713 a2         1 CLA     -0.150000
     51 C8         85.2763   56.4935   38.6856 a1         1 CLA      0.064200
     52 C9         86.4193   55.7288   37.9703 a3         1 CLA     -0.259300
     53 C10        85.7534   57.0537   40.0632 a2         1 CLA     -0.071900
     54 C11        84.6664   57.5561   40.9464 a2         1 CLA      0.014500
     55 C12        85.0234   58.4342   42.1648 a2         1 CLA     -0.112100
     56 C13        86.0822   57.9531   43.1338 a1         1 CLA      0.089200
     57 C14        85.7433   56.6264   43.8890 a3         1 CLA     -0.239100
     58 C15        86.4525   59.0100   44.1100 a2         1 CLA     -0.102200
     59 C16        85.3625   59.4430   45.1124 a2         1 CLA      0.023900
     60 C17        85.8180   60.5983   46.0161 a2         1 CLA     -0.105700
     61 C18        84.7396   61.5693   46.5997 a1         1 CLA      0.206800
     62 C19        83.5993   60.7130   47.2284 a3         1 CLA     -0.280100
     63 C20        85.2526   62.6196   47.4947 a3         1 CLA     -0.280100
     64 NC         73.8972   58.0093   41.1490 nx         1 CLA     -0.309200
     65 MG         75.5065   58.0390   39.6546 mg         1 CLA      0.895000
     66 HMD3       70.6255   55.6513   37.4170 dc         1 CLA      0.064300
     67 HMD2       71.3162   54.1005   36.7988 dc         1 CLA      0.064300
     68 HMD1       71.1284   54.3060   38.5843 dc         1 CLA      0.064300
     69 HMC3       71.9904   58.7568   45.0545 dc         1 CLA      0.052100
     70 HMC2       72.8701   57.2627   45.1672 dc         1 CLA      0.052100
     71 HMC1       73.7519   58.8254   45.2652 dc         1 CLA      0.052100
     72 HMB3       79.5932   62.2847   41.8675 dc         1 CLA      0.063600
     73 HMB2       80.4487   60.7176   41.9335 dc         1 CLA      0.063600
     74 HMB1       79.9441   61.4134   40.3359 dc         1 CLA      0.063600
     75 HMA3       81.2531   56.7809   38.7770 dc         1 CLA      0.058300
     76 HMA2       79.9846   55.6403   38.6821 dc         1 CLA      0.058300
     77 HMA1       80.8954   56.1006   37.2161 dc         1 CLA      0.058300
     78 HED3       77.0601   51.6926   34.9688 dc         1 CLA      0.079300
     79 HED2       78.2814   52.1655   36.1977 dc         1 CLA      0.079300
     80 HED1       76.9165   51.3242   36.7263 dc         1 CLA      0.079300
     81 HBC3       70.3311   54.4159   43.2522 dc         1 CLA      0.016300
     82 HBC2       71.7642   54.5860   42.1511 dc         1 CLA      0.016300
     83 HBC1       71.9622   54.9080   43.9661 dc         1 CLA      0.016300
     84 HBB2       78.6226   61.9073   45.5264 da         1 CLA      0.183000
     85 HBB1       79.2729   62.2101   43.9002 da         1 CLA      0.183000
     86 HBA2       79.8148   57.7179   33.2836 dc         1 CLA      0.029400
     87 HBA1       80.6549   57.8459   34.7782 dc         1 CLA      0.029400
     88 HAC2       70.4833   56.8083   43.8872 dc         1 CLA      0.029300
     89 HAC1       70.2334   56.4351   42.1105 dc         1 CLA      0.029300
     90 HAA2       77.7538   56.8472   34.4100 dc         1 CLA      0.028700
     91 HAA1       78.2612   58.4533   34.8706 dc         1 CLA      0.028700
     92 H203       84.3344   63.1576   47.8886 dc         1 CLA      0.065600
     93 H202       85.7260   62.1100   48.3717 dc         1 CLA      0.065600
     94 H201       85.8504   63.3308   46.9901 dc         1 CLA      0.065600
     95 H193       83.8117   60.1113   48.1125 dc         1 CLA      0.065600
     96 H192       82.7784   61.4272   47.4152 dc         1 CLA      0.065600
     97 H191       83.1721   60.0795   46.5078 dc         1 CLA      0.065600
     98 H172       86.3422   60.0869   46.8743 dc         1 CLA      0.027600
     99 H171       86.4861   61.1551   45.4217 dc         1 CLA      0.027600
    100 H162       84.4149   59.6989   44.6122 dc         1 CLA      0.002900
    101 H161       85.0999   58.7102   45.8679 dc         1 CLA      0.002900
    102 H152       87.2980   58.5424   44.6330 dc         1 CLA      0.029100
    103 H151       86.7655   59.8612   43.5430 dc         1 CLA      0.029100
    104 H143       85.6043   55.8996   43.0968 dc         1 CLA      0.063600
    105 H142       86.5671   56.2920   44.4978 dc         1 CLA      0.063600
    106 H141       84.8481   56.8646   44.4321 dc         1 CLA      0.063600
    107 H122       85.2909   59.3705   41.7775 dc         1 CLA      0.032500
    108 H121       84.0992   58.3619   42.6844 dc         1 CLA      0.032500
    109 H112       83.8188   57.9303   40.4902 dc         1 CLA      0.006600
    110 H111       84.3568   56.6084   41.3242 dc         1 CLA      0.006600
    111 H102       86.3384   56.2459   40.5117 dc         1 CLA      0.024100
    112 H101       86.5110   57.8642   39.9271 dc         1 CLA      0.024100
    113 HHD        71.2598   56.2437   40.1416 da         1 CLA      0.174300
    114 HHC        75.2274   59.4929   43.8841 da         1 CLA      0.136800
    115 HHB        79.8035   59.3416   39.2913 da         1 CLA      0.138300
    116 HBD        75.6515   56.0516   34.6888 dc         1 CLA      0.107700
    117 HAB        76.8389   60.3457   44.6166 da         1 CLA      0.155200
    118 H93        86.0202   55.5161   37.0059 dc         1 CLA      0.069500
    119 H92        87.3059   56.3392   37.8708 dc         1 CLA      0.069500
    120 H91        86.6865   54.8225   38.5038 dc         1 CLA      0.069500
    121 H8         84.8703   57.1924   37.9262 dc         1 CLA      0.029300
    122 H72        83.3087   55.8416   39.6675 dc         1 CLA      0.044400
    123 H71        84.6615   54.7349   39.6049 dc         1 CLA      0.044400
    124 H62        84.3781   54.0322   37.2380 dc         1 CLA      0.015600
    125 H61        83.0878   55.2973   37.1404 dc         1 CLA      0.015600
    126 H52        81.8139   54.0270   38.9162 dc         1 CLA      0.033200
    127 H51        82.9718   52.8139   38.8455 dc         1 CLA      0.033200
    128 H43        81.2708   50.9299   36.3454 dc         1 CLA      0.037000
    129 H42        82.7585   50.7388   37.0674 dc         1 CLA      0.037000
    130 H41        81.2861   51.0097   38.1713 dc         1 CLA      0.037000
    131 H3A        79.9604   58.2958   36.9993 dc         1 CLA      0.041100
    132 H2A        78.6935   55.8278   36.4018 dc         1 CLA      0.083100
    133 H2         79.9090   53.7342   36.9860 da         1 CLA      0.180900
    134 H18        84.3547   62.0359   45.7505 dc         1 CLA     -0.003900
    135 H13        86.9468   57.8409   42.4635 dc         1 CLA      0.019700
    136 H12        80.0415   53.5553   34.5367 dc         1 CLA      0.120400
    137 H11        81.8763   53.4014   34.6107 dc         1 CLA      0.120400
    138 C1         68.0852   60.6042   50.1205 Z1         2 LUT      0.509236
    139 C2         66.7212   60.6632   50.7480 Z2         2 LUT     -0.434695
    140 C3         66.0500   61.9863   51.0945 Z3         2 LUT      0.437453
    141 O3         66.5519   62.3438   52.4002 S1         2 LUT     -0.547129
    142 C4         66.4823   63.0140   50.0994 Z4         2 LUT     -0.468603
    143 C5         67.2036   62.6570   48.9166 Z5         2 LUT      0.279246
    144 C6         68.0284   61.6341   48.8990 Z6         2 LUT     -0.305473
    145 C7         68.5667   61.1225   47.6365 Z7         2 LUT      0.069402
    146 C8         69.4783   61.6763   46.7908 Z8         2 LUT     -0.191631
    147 C9         70.0569   61.1798   45.5579 Z9         2 LUT      0.196698
    148 C10        71.1434   61.8753   45.1015 Y1         2 LUT     -0.208611
    149 C11        71.8219   61.7001   43.8359 Y2         2 LUT      0.030784
    150 C12        72.9913   62.3529   43.5738 Y3         2 LUT     -0.220316
    151 C13        73.8999   62.3041   42.3853 Y4         2 LUT      0.215937
    152 C14        75.0842   62.9971   42.4000 Y5         2 LUT     -0.185793
    153 C15        76.0802   63.1021   41.4011 Y6         2 LUT     -0.057835
    154 C16        68.4455   59.0717   49.8470 Y7         2 LUT     -0.405615
    155 C17        69.1211   61.1478   51.1334 Y7         2 LUT     -0.405615
    156 C18        66.6626   63.3205   47.6924 Y9         2 LUT     -0.369639
    157 C19        69.3051   60.1532   44.7462 W1         2 LUT     -0.333362
    158 C20        73.2440   61.8382   41.0517 W2         2 LUT     -0.323439
    159 C21        87.4963   64.7318   35.3520 Z1         2 LUT      0.406104
    160 C22        88.3305   64.4471   34.1265 Z2         2 LUT     -0.404965
    161 C23        88.5467   65.6111   33.1899 Z3         2 LUT      0.391255
    162 O23        89.4456   65.1611   32.1656 S1         2 LUT     -0.528210
    163 C24        87.2165   66.3626   32.9272 W6         2 LUT     -0.258361
    164 C25        86.0919   66.2042   33.6552 Z5         2 LUT      0.133546
    165 C26        86.0252   65.2310   34.8480 W8         2 LUT     -0.147008
    166 C27        85.1720   65.8762   35.9438 Z7         2 LUT      0.023843
    167 C28        84.2186   65.1966   36.5803 Z8         2 LUT     -0.216987
    168 C29        83.4938   65.5736   37.8000 Z9         2 LUT      0.206524
    169 C30        82.3987   64.8081   38.1466 Y1         2 LUT     -0.215556
    170 C31        81.5536   65.0587   39.2798 Y2         2 LUT      0.025142
    171 C32        80.2956   64.4694   39.4746 Y3         2 LUT     -0.212209
    172 C33        79.4190   64.5914   40.6270 Y4         2 LUT      0.240937
    173 C34        78.1410   64.1072   40.5017 Y5         2 LUT     -0.218862
    174 C35        77.1318   63.9849   41.5788 Y6         2 LUT     -0.023547
    175 C36        88.1503   65.7308   36.2864 Y7         2 LUT     -0.393485
    176 C37        87.3316   63.4325   36.1392 Y7         2 LUT     -0.393485
    177 C38        84.7930   66.8846   33.1877 Y9         2 LUT     -0.387526
    178 C39        83.9850   66.7581   38.5568 W1         2 LUT     -0.322618
    179 C40        79.8637   65.5362   41.7117 W2         2 LUT     -0.358472
    180 H403       79.0199   66.0936   42.2008 R7         2 LUT      0.097720
    181 H402       80.4134   65.0210   42.5061 R7         2 LUT      0.097720
    182 H401       80.5035   66.3528   41.4564 R7         2 LUT      0.097720
    183 H393       83.4085   67.6171   38.2423 R4         2 LUT      0.082505
    184 H392       83.8047   66.5571   39.6224 R4         2 LUT      0.082505
    185 H391       84.9578   66.9907   38.4638 R4         2 LUT      0.082505
    186 H383       84.8456   67.0557   32.0933 R1         2 LUT      0.104030
    187 H382       83.9281   66.2718   33.4266 R1         2 LUT      0.104030
    188 H381       84.6502   67.9188   33.5463 R1         2 LUT      0.104030
    189 H373       88.1871   63.0638   36.7146 T4         2 LUT      0.089537
    190 H372       86.6293   63.6253   36.9118 T4         2 LUT      0.089537
    191 H371       87.0447   62.5539   35.5034 T4         2 LUT      0.089537
    192 H363       89.1528   65.4284   36.5878 T4         2 LUT      0.089537
    193 H362       88.2493   66.7288   35.9047 T4         2 LUT      0.089537
    194 H361       87.5932   65.8941   37.2069 T4         2 LUT      0.089537
    195 H222       89.3077   64.0509   34.3639 U2         2 LUT      0.127376
    196 H221       87.6753   63.7562   33.6581 U2         2 LUT      0.127376
    197 H203       73.0657   60.7863   41.0786 R7         2 LUT      0.087068
    198 H202       72.2561   62.2906   40.9010 R7         2 LUT      0.087068
    199 H201       73.8377   62.1489   40.1795 R7         2 LUT      0.087068
    200 H193       69.9703   59.3309   44.3137 R4         2 LUT      0.089716
    201 H192       68.4805   59.7759   45.2753 R4         2 LUT      0.089716
    202 H191       68.8788   60.6912   43.8944 R4         2 LUT      0.089716
    203 H183       65.9327   62.7489   47.2455 R1         2 LUT      0.094572
    204 H182       66.1550   64.2899   47.9197 R1         2 LUT      0.094572
    205 H181       67.5336   63.6012   47.0478 R1         2 LUT      0.094572
    206 H173       70.1764   61.0383   50.7786 T4         2 LUT      0.093752
    207 H172       69.0598   62.2115   51.2415 T4         2 LUT      0.093752
    208 H171       69.1055   60.6773   52.1920 T4         2 LUT      0.093752
    209 H163       67.6889   58.5167   49.3062 T4         2 LUT      0.093752
    210 H162       69.4151   58.9808   49.3023 T4         2 LUT      0.093752
    211 H161       68.4720   58.5280   50.7608 T4         2 LUT      0.093752
    212 HO3        65.9612   61.8997   53.0262 Q1         2 LUT      0.300121
    213 H8         69.7355   62.6663   47.1135 U7         2 LUT      0.080784
    214 H7         68.3213   60.0815   47.3732 U6         2 LUT      0.042190
    215 H42        65.5120   63.4085   49.7981 U5         2 LUT      0.145166
    216 H41        67.0070   63.8087   50.6007 U5         2 LUT      0.145166
    217 H35        77.2171   64.4270   42.5971 T3         2 LUT      0.077919
    218 H34        77.9346   63.6915   39.5560 T2         2 LUT      0.073626
    219 H32        79.9596   63.8718   38.6718 T1         2 LUT      0.092510
    220 H31        81.9950   65.7126   39.9127 U9         2 LUT      0.070048
    221 H30        82.1478   64.0073   37.4851 U8         2 LUT      0.085442
    222 H3         64.9763   61.9355   51.0220 U3         2 LUT     -0.031596
    223 H28        84.0723   64.1743   36.3268 U7         2 LUT      0.084728
    224 H27        85.5684   66.8719   36.1473 U6         2 LUT      0.087291
    225 H26        85.4615   64.3583   34.3359 Q6         2 LUT      0.075325
    226 H24        87.1960   66.8969   31.9582 Q5         2 LUT      0.094482
    227 H23        89.2480   66.2639   33.7777 U3         2 LUT     -0.024869
    228 H22        66.0232   60.1812   50.0527 U2         2 LUT      0.127376
    229 H21        66.6563   60.0386   51.6746 U2         2 LUT      0.127376
    230 H15        76.0163   62.6691   40.4029 T3         2 LUT      0.093200
    231 H14        75.2290   63.4275   43.3664 T2         2 LUT      0.068865
    232 H12        73.4397   62.9518   44.3120 T1         2 LUT      0.095507
    233 H11        71.5316   60.9389   43.0824 U9         2 LUT      0.068930
    234 H10        71.4652   62.5205   45.8005 U8         2 LUT      0.083911
    235 H1         88.9239   64.8956   31.4141 Q1         2 LUT      0.297311
@<TRIPOS>BOND
    1     6     1 1
    2     7     2 1
    3     8     3 1
    4     9     4 1
    5    11     4 1
    6    12     6 1
    7    13     9 1
    8    16     9 1
    9    25     5 1
   10    25    16 1
   11    26    10 1
   12    26    17 1
   13    27    18 1
   14    28    14 1
   15    28    19 1
   16    29    12 1
   17    30    13 1
   18    31    24 1
   19    32     1 1
   20    32    25 1
   21    33    21 1
   22    33    26 1
   23    34    22 1
   24    34    27 1
   25    35    23 1
   26    35    28 1
   27    36    12 1
   28    36    24 1
   29    37    13 1
   30    37    15 1
   31    38    31 1
   32    39    20 1
   33    39    32 1
   34    40     2 1
   35    40    33 1
   36    41     3 1
   37    41    34 1
   38    42     4 1
   39    42    35 1
   40    43    38 1
   41    44     5 1
   42    44    17 1
   43    44    39 1
   44    45    10 1
   45    45    18 1
   46    45    40 1
   47    46    19 1
   48    46    41 1
   49    47    14 1
   50    47    16 1
   51    47    42 1
   52    48    38 1
   53    49    48 1
   54    50    49 1
   55    51    50 1
   56    52    51 1
   57    53    51 1
   58    54    53 1
   59    55    54 1
   60    56    55 1
   61    57    56 1
   62    58    56 1
   63    59    58 1
   64    60    59 1
   65    61    60 1
   66    62    61 1
   67    63    61 1
   68    64    27 1
   69    64    46 1
   70    65     5 1
   71    65    10 1
   72    65    64 1
   73    65    14 1
   74    66    23 1
   75    67    23 1
   76    68    23 1
   77    69    22 1
   78    70    22 1
   79    71    22 1
   80    72    21 1
   81    73    21 1
   82    74    21 1
   83    75    20 1
   84    76    20 1
   85    77    20 1
   86    78    15 1
   87    79    15 1
   88    80    15 1
   89    81     8 1
   90    82     8 1
   91    83     8 1
   92    84     7 1
   93    85     7 1
   94    86     6 1
   95    87     6 1
   96    88     3 1
   97    89     3 1
   98    90     1 1
   99    91     1 1
  100    92    63 1
  101    93    63 1
  102    94    63 1
  103    95    62 1
  104    96    62 1
  105    97    62 1
  106    98    60 1
  107    99    60 1
  108   100    59 1
  109   101    59 1
  110   102    58 1
  111   103    58 1
  112   104    57 1
  113   105    57 1
  114   106    57 1
  115   107    55 1
  116   108    55 1
  117   109    54 1
  118   110    54 1
  119   111    53 1
  120   112    53 1
  121   113    19 1
  122   114    18 1
  123   115    17 1
  124   116     9 1
  125   117     2 1
  126   118    52 1
  127   119    52 1
  128   120    52 1
  129   121    51 1
  130   122    50 1
  131   123    50 1
  132   124    49 1
  133   125    49 1
  134   126    48 1
  135   127    48 1
  136   128    43 1
  137   129    43 1
  138   130    43 1
  139   131    39 1
  140   132    32 1
  141   133    31 1
  142   134    61 1
  143   135    56 1
  144   136    24 1
  145   137    24 1
  146   139   138 1
  147   140   139 1
  148   141   140 1
  149   142   140 1
  150   143   142 1
  151   144   138 1
  152   144   143 1
  153   145   144 1
  154   146   145 1
  155   147   146 1
  156   148   147 1
  157   149   148 1
  158   150   149 1
  159   151   150 1
  160   152   151 1
  161   153   152 1
  162   154   138 1
  163   155   138 1
  164   156   143 1
  165   157   147 1
  166   158   151 1
  167   160   159 1
  168   161   160 1
  169   162   161 1
  170   163   161 1
  171   164   163 1
  172   165   159 1
  173   165   164 1
  174   166   165 1
  175   167   166 1
  176   168   167 1
  177   169   168 1
  178   170   169 1
  179   171   170 1
  180   172   171 1
  181   173   172 1
  182   174   153 1
  183   174   173 1
  184   175   159 1
  185   176   159 1
  186   177   164 1
  187   178   168 1
  188   179   172 1
  189   180   179 1
  190   181   179 1
  191   182   179 1
  192   183   178 1
  193   184   178 1
  194   185   178 1
  195   186   177 1
  196   187   177 1
  197   188   177 1
  198   189   176 1
  199   190   176 1
  200   191   176 1
  201   192   175 1
  202   193   175 1
  203   194   175 1
  204   195   160 1
  205   196   160 1
  206   197   158 1
  207   198   158 1
  208   199   158 1
  209   200   157 1
  210   201   157 1
  211   202   157 1
  212   203   156 1
  213   204   156 1
  214   205   156 1
  215   206   155 1
  216   207   155 1
  217   208   155 1
  218   209   154 1
  219   210   154 1
  220   211   154 1
  221   212   141 1
  222   213   146 1
  223   214   145 1
  224   215   142 1
  225   216   142 1
  226   217   174 1
  227   218   173 1
  228   219   171 1
  229   220   170 1
  230   221   169 1
  231   222   140 1
  232   223   167 1
  233   224   166 1
  234   225   165 1
  235   226   163 1
  236   227   161 1
  237   228   139 1
  238   229   139 1
  239   230   153 1
  240   231   152 1
  241   232   150 1
  242   233   149 1
  243   234   148 1
  244   235   162 1
  245   65    153 1
  246   65    174 1
@<TRIPOS>SUBSTRUCTURE
      1 CLA               1 ****               0 ****  **** 
      2 LUT             138 ****               0 ****  **** 
