@<TRIPOS>MOLECULE
Cpptraj generated mol2 file.
  235   246     2     0     0
SMALL
USER_CHARGES


@<TRIPOS>ATOM
      1 CAA        78.7823   58.4163   35.3253 a2         1 CLA     -0.055900
      2 CAB        78.0438   62.3329   44.0579 c8         1 CLA     -0.148500
      3 CAC        71.2473   58.3990   43.3529 a2         1 CLA     -0.012600
      4 CAD        74.5965   55.7916   35.9753 ck         1 CLA      0.398800
      5 NA         77.5041   58.7523   38.5002 ns         1 CLA     -0.225500
      6 CBA        80.1722   58.4534   34.5717 a2         1 CLA     -0.135000
      7 CBB        79.1745   62.5104   44.8081 c0         1 CLA     -0.395200
      8 CBC        71.1140   56.8900   43.3638 a3         1 CLA     -0.037700
      9 CBD        76.0236   56.3703   35.8031 a1         1 CLA     -0.053900
     10 NB         77.1279   60.4368   41.0111 nm         1 CLA     -0.295700
     11 OBD        74.0746   55.0302   35.1392 o2         1 CLA     -0.494600
     12 CGA        80.7895   57.1732   34.2711 c4         1 CLA      0.827000
     13 CGD        77.0345   55.2081   35.7515 c4         1 CLA      0.655300
     14 ND         74.6270   57.7965   38.9236 nm         1 CLA     -0.291600
     15 CED        78.0677   53.4952   37.1292 a3         1 CLA      0.005400
     16 CHA        76.2515   57.3054   36.9990 cs         1 CLA     -0.123800
     17 CHB        79.1378   60.1989   39.6776 aa         1 CLA     -0.291900
     18 CHC        75.5945   60.7488   42.9806 aa         1 CLA     -0.090400
     19 CHD        72.7748   57.5928   40.4894 aa         1 CLA     -0.052000
     20 CMA        80.7949   57.6896   38.5004 a3         1 CLA     -0.230700
     21 CMB        80.4597   62.0462   41.7603 a3         1 CLA     -0.180800
     22 CMC        73.2197   60.2926   44.8603 a3         1 CLA     -0.134000
     23 CMD        71.8200   55.4215   38.2120 a3         1 CLA     -0.141100
     24 C1         82.5800   55.6939   35.0259 a2         1 CLA      0.023000
     25 C1A        77.4751   57.9525   37.4230 ac         1 CLA     -0.015100
     26 C1B        78.3956   60.7556   40.7175 cr         1 CLA      0.054700
     27 C1C        74.5327   59.8864   42.6513 cn         1 CLA     -0.005600
     28 C1D        73.4499   57.1945   39.3123 ap         1 CLA     -0.047300
     29 O1A        80.5779   56.4353   33.3223 o2         1 CLA     -0.610800
     30 O1D        77.8510   54.9397   34.8589 o2         1 CLA     -0.558200
     31 C2         83.2348   55.4124   36.3179 c8         1 CLA     -0.325100
     32 C2A        78.8130   57.8711   36.7282 a1         1 CLA      0.098600
     33 C2B        78.9471   61.6142   41.7108 cb         1 CLA      0.088500
     34 C2C        73.4363   59.7179   43.4808 cb         1 CLA      0.053700
     35 C2D        73.0612   56.2612   38.2584 cb         1 CLA      0.058900
     36 O2A        81.7194   56.8642   35.1524 o1         1 CLA     -0.437200
     37 O2D        77.0935   54.5521   36.9838 o1         1 CLA     -0.357600
     38 C3         83.5131   54.1704   36.8205 c5         1 CLA      0.031200
     39 C3A        79.7161   58.5805   37.7789 a1         1 CLA      0.166800
     40 C3B        77.9570   61.7640   42.6742 cb         1 CLA      0.035000
     41 C3C        72.5324   58.8987   42.7603 cb         1 CLA     -0.089900
     42 C3D        74.0968   56.2778   37.2889 cb         1 CLA     -0.035900
     43 C4         82.3834   53.6205   37.7219 a3         1 CLA     -0.053300
     44 C4A        78.7549   59.1999   38.7553 ac         1 CLA      0.001800
     45 C4B        76.7830   60.9745   42.1975 cn         1 CLA     -0.020900
     46 C4C        73.2190   58.5444   41.4968 cr         1 CLA     -0.044400
     47 C4D        75.0321   57.2224   37.7129 c6         1 CLA     -0.046000
     48 C5         84.8429   53.5242   36.8441 a2         1 CLA     -0.070400
     49 C6         85.9977   54.4104   37.1647 a2         1 CLA      0.043900
     50 C7         85.9433   54.9729   38.6114 a2         1 CLA     -0.150000
     51 C8         86.9286   56.0674   38.9272 a1         1 CLA      0.064200
     52 C9         88.3662   55.5611   38.8505 a3         1 CLA     -0.259300
     53 C10        86.6886   56.8449   40.2844 a2         1 CLA     -0.071900
     54 C11        85.2452   57.2819   40.6411 a2         1 CLA      0.014500
     55 C12        85.1105   58.3362   41.7032 a2         1 CLA     -0.112100
     56 C13        85.7131   57.9771   43.1023 a1         1 CLA      0.089200
     57 C14        85.1142   56.8320   43.9231 a3         1 CLA     -0.239100
     58 C15        85.7867   59.2500   43.9207 a2         1 CLA     -0.102200
     59 C16        84.5132   59.9326   44.3709 a2         1 CLA      0.023900
     60 C17        84.7033   60.9574   45.5079 a2         1 CLA     -0.105700
     61 C18        83.4701   61.9362   45.8788 a1         1 CLA      0.206800
     62 C19        82.2530   61.1220   46.3170 a3         1 CLA     -0.280100
     63 C20        83.8190   63.0971   46.8553 a3         1 CLA     -0.280100
     64 NC         74.3684   59.2071   41.4344 nx         1 CLA     -0.309200
     65 MG         75.8406   59.1903   39.8728 mg         1 CLA      0.895000
     66 HMD3       71.3864   55.1017   39.1640 dc         1 CLA      0.064300
     67 HMD2       70.9758   55.9697   37.7460 dc         1 CLA      0.064300
     68 HMD1       72.0843   54.4958   37.6801 dc         1 CLA      0.064300
     69 HMC3       73.9641   61.0442   45.2859 dc         1 CLA      0.052100
     70 HMC2       72.2605   60.8117   44.9478 dc         1 CLA      0.052100
     71 HMC1       73.1644   59.4513   45.5572 dc         1 CLA      0.052100
     72 HMB3       81.0131   61.3776   42.4736 dc         1 CLA      0.063600
     73 HMB2       80.8176   62.0649   40.7540 dc         1 CLA      0.063600
     74 HMB1       80.4859   63.0882   42.1636 dc         1 CLA      0.063600
     75 HMA3       81.5220   58.2106   39.1294 dc         1 CLA      0.058300
     76 HMA2       80.3134   56.9997   39.2220 dc         1 CLA      0.058300
     77 HMA1       81.4019   57.0991   37.7850 dc         1 CLA      0.058300
     78 HED3       77.9512   52.6930   36.3916 dc         1 CLA      0.079300
     79 HED2       79.1176   53.7671   37.1335 dc         1 CLA      0.079300
     80 HED1       77.9467   53.0390   38.0841 dc         1 CLA      0.079300
     81 HBC3       72.0665   56.4175   43.6280 dc         1 CLA      0.016300
     82 HBC2       70.3273   56.5115   44.0217 dc         1 CLA      0.016300
     83 HBC1       70.9550   56.5429   42.3986 dc         1 CLA      0.016300
     84 HBB2       79.0681   63.0454   45.7559 da         1 CLA      0.183000
     85 HBB1       80.1920   62.1881   44.4066 da         1 CLA      0.183000
     86 HBA2       79.9695   58.8953   33.6105 dc         1 CLA      0.029400
     87 HBA1       80.9025   59.0958   35.1302 dc         1 CLA      0.029400
     88 HAC2       71.2253   58.5798   44.4641 dc         1 CLA      0.029300
     89 HAC1       70.3776   58.8317   42.8058 dc         1 CLA      0.029300
     90 HAA2       78.0006   57.9685   34.7580 dc         1 CLA      0.028700
     91 HAA1       78.5268   59.4538   35.3672 dc         1 CLA      0.028700
     92 H203       83.2243   64.0065   46.6278 dc         1 CLA      0.065600
     93 H202       83.7454   62.7743   47.8538 dc         1 CLA      0.065600
     94 H201       84.8626   63.3755   46.7136 dc         1 CLA      0.065600
     95 H193       81.3148   61.7435   46.3165 dc         1 CLA      0.065600
     96 H192       82.1657   60.3149   45.5861 dc         1 CLA      0.065600
     97 H191       82.4713   60.6285   47.2368 dc         1 CLA      0.065600
     98 H172       85.2707   60.4440   46.3107 dc         1 CLA      0.027600
     99 H171       85.3052   61.7830   45.1589 dc         1 CLA      0.027600
    100 H162       84.0432   60.4002   43.4703 dc         1 CLA      0.002900
    101 H161       83.8198   59.1972   44.7823 dc         1 CLA      0.002900
    102 H152       86.4043   59.0613   44.7951 dc         1 CLA      0.029100
    103 H151       86.3776   59.9809   43.2967 dc         1 CLA      0.029100
    104 H143       85.2005   55.8541   43.4231 dc         1 CLA      0.063600
    105 H142       85.4849   56.7588   44.9494 dc         1 CLA      0.063600
    106 H141       84.0088   56.9049   43.9049 dc         1 CLA      0.063600
    107 H122       85.6270   59.2130   41.3138 dc         1 CLA      0.032500
    108 H121       84.0339   58.4941   41.9123 dc         1 CLA      0.032500
    109 H112       84.7341   57.5556   39.7640 dc         1 CLA      0.006600
    110 H111       84.7326   56.4260   41.0581 dc         1 CLA      0.006600
    111 H102       87.0906   56.2119   41.1617 dc         1 CLA      0.024100
    112 H101       87.2959   57.8192   40.2139 dc         1 CLA      0.024100
    113 HHD        71.8237   57.1318   40.6421 da         1 CLA      0.174300
    114 HHC        75.5598   61.1522   43.9788 da         1 CLA      0.136800
    115 HHB        80.1646   60.5405   39.5613 da         1 CLA      0.138300
    116 HBD        76.0879   56.9491   34.8825 dc         1 CLA      0.107700
    117 HAB        77.1188   62.6557   44.5200 da         1 CLA      0.155200
    118 H93        89.0592   56.3911   38.9924 dc         1 CLA      0.069500
    119 H92        88.5642   54.7696   39.5330 dc         1 CLA      0.069500
    120 H91        88.5571   55.2310   37.7733 dc         1 CLA      0.069500
    121 H8         86.6880   56.8469   38.2269 dc         1 CLA      0.029300
    122 H72        84.9525   55.4169   38.6346 dc         1 CLA      0.044400
    123 H71        85.9842   53.9867   39.1515 dc         1 CLA      0.044400
    124 H62        86.9467   53.8575   37.0227 dc         1 CLA      0.015600
    125 H61        86.1084   55.2020   36.4317 dc         1 CLA      0.015600
    126 H52        84.6772   52.6570   37.5105 dc         1 CLA      0.033200
    127 H51        84.9402   53.0773   35.8277 dc         1 CLA      0.033200
    128 H43        81.6576   54.4232   37.8359 dc         1 CLA      0.037000
    129 H42        81.9619   52.6543   37.2784 dc         1 CLA      0.037000
    130 H41        82.7310   53.4985   38.6833 dc         1 CLA      0.037000
    131 H3A        80.3775   59.3221   37.4042 dc         1 CLA      0.041100
    132 H2A        79.1726   56.8303   36.6769 dc         1 CLA      0.083100
    133 H2         83.5233   56.2960   36.9258 da         1 CLA      0.180900
    134 H18        83.0546   62.4205   44.9797 dc         1 CLA     -0.003900
    135 H13        86.7148   57.7757   42.9607 dc         1 CLA      0.019700
    136 H12        81.9421   54.7503   34.9072 dc         1 CLA      0.120400
    137 H11        83.3058   55.8721   34.1816 dc         1 CLA      0.120400
    138 C1         68.1798   62.2326   50.4311 Z1         2 LUT      0.509236
    139 C2         66.7919   61.9266   51.0475 Z2         2 LUT     -0.434695
    140 C3         65.8504   63.0951   51.4428 Z3         2 LUT      0.437453
    141 O3         66.1855   63.5647   52.7329 S1         2 LUT     -0.547129
    142 C4         65.9273   64.2274   50.5338 Z4         2 LUT     -0.468603
    143 C5         66.8131   64.0793   49.3038 Z5         2 LUT      0.279246
    144 C6         67.8491   63.1882   49.2265 Z6         2 LUT     -0.305473
    145 C7         68.3923   62.7314   47.8525 Z7         2 LUT      0.069402
    146 C8         69.3751   63.2131   47.0694 Z8         2 LUT     -0.191631
    147 C9         70.0549   62.6733   45.8327 Z9         2 LUT      0.196698
    148 C10        70.8817   63.4996   45.1840 Y1         2 LUT     -0.208611
    149 C11        71.4536   63.3047   43.9346 Y2         2 LUT      0.030784
    150 C12        72.6381   64.0037   43.6445 Y3         2 LUT     -0.220316
    151 C13        73.4695   63.7921   42.4669 Y4         2 LUT      0.215937
    152 C14        74.6849   64.4080   42.4674 Y5         2 LUT     -0.185793
    153 C15        75.8546   64.2124   41.6456 Y6         2 LUT     -0.057835
    154 C16        68.8855   60.8959   50.0656 Y7         2 LUT     -0.405615
    155 C17        69.0143   62.9240   51.5707 Y7         2 LUT     -0.405615
    156 C18        66.4481   65.0085   48.1936 Y9         2 LUT     -0.369639
    157 C19        69.4733   61.3915   45.2944 W1         2 LUT     -0.333362
    158 C20        73.0598   62.8220   41.3700 W2         2 LUT     -0.323439
    159 C21        87.5064   65.4424   35.4493 Z1         2 LUT      0.406104
    160 C22        88.2593   65.0273   34.1908 Z2         2 LUT     -0.404965
    161 C23        88.3136   66.1863   33.1288 Z3         2 LUT      0.391255
    162 O23        89.0938   65.6484   32.0349 S1         2 LUT     -0.528210
    163 C24        86.8458   66.7940   33.0897 W6         2 LUT     -0.258361
    164 C25        85.8252   66.6418   33.9450 Z5         2 LUT      0.133546
    165 C26        85.9990   65.7602   35.3003 W8         2 LUT     -0.147008
    166 C27        85.3402   66.4208   36.4548 Z7         2 LUT      0.023843
    167 C28        84.3113   65.8451   37.1089 Z8         2 LUT     -0.216987
    168 C29        83.6145   66.2470   38.3865 Z9         2 LUT      0.206524
    169 C30        82.4409   65.6226   38.7358 Y1         2 LUT     -0.215556
    170 C31        81.5352   65.9192   39.8509 Y2         2 LUT      0.025142
    171 C32        80.3562   65.2957   40.1268 Y3         2 LUT     -0.212209
    172 C33        79.3081   65.5900   41.1284 Y4         2 LUT      0.240937
    173 C34        78.1967   64.8623   41.0463 Y5         2 LUT     -0.218862
    174 C35        77.0525   64.8894   41.9206 Y6         2 LUT     -0.023547
    175 C36        88.2960   66.6359   36.1106 Y7         2 LUT     -0.393485
    176 C37        87.6275   64.3308   36.5197 Y7         2 LUT     -0.393485
    177 C38        84.5797   67.4634   33.5866 Y9         2 LUT     -0.387526
    178 C39        84.1224   67.4453   39.1467 W1         2 LUT     -0.322618
    179 C40        79.4139   66.7912   41.9945 W2         2 LUT     -0.358472
    180 H403       80.4511   67.1511   42.2465 R7         2 LUT      0.097720
    181 H402       79.0354   67.6782   41.5586 R7         2 LUT      0.097720
    182 H401       78.8248   66.7469   42.9338 R7         2 LUT      0.097720
    183 H393       83.7488   68.2788   38.5842 R4         2 LUT      0.082505
    184 H392       83.7313   67.4739   40.1432 R4         2 LUT      0.082505
    185 H391       85.1964   67.6429   39.1746 R4         2 LUT      0.082505
    186 H383       84.5040   67.8856   32.5967 R1         2 LUT      0.104030
    187 H382       83.7085   66.8111   33.6044 R1         2 LUT      0.104030
    188 H381       84.4813   68.2832   34.1857 R1         2 LUT      0.104030
    189 H373       87.3094   64.6010   37.5517 T4         2 LUT      0.089537
    190 H372       87.0505   63.4437   36.2406 T4         2 LUT      0.089537
    191 H371       88.6410   63.9105   36.6061 T4         2 LUT      0.089537
    192 H363       89.3857   66.4964   35.9774 T4         2 LUT      0.089537
    193 H362       88.1352   67.6009   35.6141 T4         2 LUT      0.089537
    194 H361       88.0280   66.7533   37.2036 T4         2 LUT      0.089537
    195 H222       89.2530   64.6599   34.4790 U2         2 LUT      0.127376
    196 H221       87.6032   64.2622   33.7377 U2         2 LUT      0.127376
    197 H203       72.3758   62.0021   41.7051 R7         2 LUT      0.087068
    198 H202       72.4200   63.2856   40.6186 R7         2 LUT      0.087068
    199 H201       73.8799   62.2542   40.9922 R7         2 LUT      0.087068
    200 H193       69.5596   61.3782   44.2133 R4         2 LUT      0.089716
    201 H192       69.9204   60.5673   45.7240 R4         2 LUT      0.089716
    202 H191       68.4301   61.3469   45.5712 R4         2 LUT      0.089716
    203 H183       66.1179   65.9556   48.5302 R1         2 LUT      0.094572
    204 H182       67.3366   65.0947   47.5792 R1         2 LUT      0.094572
    205 H181       65.7075   64.4183   47.7014 R1         2 LUT      0.094572
    206 H173       68.6873   63.9268   51.6709 T4         2 LUT      0.093752
    207 H172       68.9409   62.4533   52.5443 T4         2 LUT      0.093752
    208 H171       70.1004   62.8654   51.2662 T4         2 LUT      0.093752
    209 H163       68.3573   60.2674   49.2874 T4         2 LUT      0.093752
    210 H162       69.9634   61.1504   49.7678 T4         2 LUT      0.093752
    211 H161       69.0728   60.2158   50.9874 T4         2 LUT      0.093752
    212 HO3        65.7616   63.0076   53.3606 Q1         2 LUT      0.300121
    213 H8         69.8391   64.0677   47.5167 U7         2 LUT      0.080784
    214 H7         67.9398   61.7964   47.6373 U6         2 LUT      0.042190
    215 H42        64.9506   64.5103   50.0373 U5         2 LUT      0.145166
    216 H41        66.2493   65.1258   51.1378 U5         2 LUT      0.145166
    217 H35        77.1274   65.5448   42.7824 T3         2 LUT      0.077919
    218 H34        78.1691   64.1155   40.3064 T2         2 LUT      0.073626
    219 H32        80.0430   64.4690   39.4684 T1         2 LUT      0.092510
    220 H31        81.8009   66.8192   40.3605 U9         2 LUT      0.070048
    221 H30        82.1713   64.7759   38.1580 U8         2 LUT      0.085442
    222 H3         64.8505   62.8715   51.3830 U3         2 LUT     -0.031596
    223 H28        84.1740   64.7620   36.9730 U7         2 LUT      0.084728
    224 H27        85.6893   67.4173   36.7410 U6         2 LUT      0.087291
    225 H26        85.5866   64.7468   35.1355 Q6         2 LUT      0.075325
    226 H24        86.5587   67.4236   32.2305 Q5         2 LUT      0.094482
    227 H23        89.0079   66.8234   33.6523 U3         2 LUT     -0.024869
    228 H22        66.1965   61.2904   50.3859 U2         2 LUT      0.127376
    229 H21        66.9311   61.2697   51.8616 U2         2 LUT      0.127376
    230 H15        75.7132   63.5989   40.7989 T3         2 LUT      0.093200
    231 H14        74.7930   65.1174   43.2590 T2         2 LUT      0.068865
    232 H12        72.9559   64.7182   44.4365 T1         2 LUT      0.095507
    233 H11        71.0715   62.5297   43.3335 U9         2 LUT      0.068930
    234 H10        71.1216   64.4200   45.7278 U8         2 LUT      0.083911
    235 H1         88.6303   65.7285   31.2249 Q1         2 LUT      0.297311
@<TRIPOS>BOND
    1     6     1 1
    2     7     2 1
    3     8     3 1
    4     9     4 1
    5    11     4 1
    6    12     6 1
    7    13     9 1
    8    16     9 1
    9    25     5 1
   10    25    16 1
   11    26    10 1
   12    26    17 1
   13    27    18 1
   14    28    14 1
   15    28    19 1
   16    29    12 1
   17    30    13 1
   18    31    24 1
   19    32     1 1
   20    32    25 1
   21    33    21 1
   22    33    26 1
   23    34    22 1
   24    34    27 1
   25    35    23 1
   26    35    28 1
   27    36    12 1
   28    36    24 1
   29    37    13 1
   30    37    15 1
   31    38    31 1
   32    39    20 1
   33    39    32 1
   34    40     2 1
   35    40    33 1
   36    41     3 1
   37    41    34 1
   38    42     4 1
   39    42    35 1
   40    43    38 1
   41    44     5 1
   42    44    17 1
   43    44    39 1
   44    45    10 1
   45    45    18 1
   46    45    40 1
   47    46    19 1
   48    46    41 1
   49    47    14 1
   50    47    16 1
   51    47    42 1
   52    48    38 1
   53    49    48 1
   54    50    49 1
   55    51    50 1
   56    52    51 1
   57    53    51 1
   58    54    53 1
   59    55    54 1
   60    56    55 1
   61    57    56 1
   62    58    56 1
   63    59    58 1
   64    60    59 1
   65    61    60 1
   66    62    61 1
   67    63    61 1
   68    64    27 1
   69    64    46 1
   70    65     5 1
   71    65    10 1
   72    65    64 1
   73    65    14 1
   74    66    23 1
   75    67    23 1
   76    68    23 1
   77    69    22 1
   78    70    22 1
   79    71    22 1
   80    72    21 1
   81    73    21 1
   82    74    21 1
   83    75    20 1
   84    76    20 1
   85    77    20 1
   86    78    15 1
   87    79    15 1
   88    80    15 1
   89    81     8 1
   90    82     8 1
   91    83     8 1
   92    84     7 1
   93    85     7 1
   94    86     6 1
   95    87     6 1
   96    88     3 1
   97    89     3 1
   98    90     1 1
   99    91     1 1
  100    92    63 1
  101    93    63 1
  102    94    63 1
  103    95    62 1
  104    96    62 1
  105    97    62 1
  106    98    60 1
  107    99    60 1
  108   100    59 1
  109   101    59 1
  110   102    58 1
  111   103    58 1
  112   104    57 1
  113   105    57 1
  114   106    57 1
  115   107    55 1
  116   108    55 1
  117   109    54 1
  118   110    54 1
  119   111    53 1
  120   112    53 1
  121   113    19 1
  122   114    18 1
  123   115    17 1
  124   116     9 1
  125   117     2 1
  126   118    52 1
  127   119    52 1
  128   120    52 1
  129   121    51 1
  130   122    50 1
  131   123    50 1
  132   124    49 1
  133   125    49 1
  134   126    48 1
  135   127    48 1
  136   128    43 1
  137   129    43 1
  138   130    43 1
  139   131    39 1
  140   132    32 1
  141   133    31 1
  142   134    61 1
  143   135    56 1
  144   136    24 1
  145   137    24 1
  146   139   138 1
  147   140   139 1
  148   141   140 1
  149   142   140 1
  150   143   142 1
  151   144   138 1
  152   144   143 1
  153   145   144 1
  154   146   145 1
  155   147   146 1
  156   148   147 1
  157   149   148 1
  158   150   149 1
  159   151   150 1
  160   152   151 1
  161   153   152 1
  162   154   138 1
  163   155   138 1
  164   156   143 1
  165   157   147 1
  166   158   151 1
  167   160   159 1
  168   161   160 1
  169   162   161 1
  170   163   161 1
  171   164   163 1
  172   165   159 1
  173   165   164 1
  174   166   165 1
  175   167   166 1
  176   168   167 1
  177   169   168 1
  178   170   169 1
  179   171   170 1
  180   172   171 1
  181   173   172 1
  182   174   153 1
  183   174   173 1
  184   175   159 1
  185   176   159 1
  186   177   164 1
  187   178   168 1
  188   179   172 1
  189   180   179 1
  190   181   179 1
  191   182   179 1
  192   183   178 1
  193   184   178 1
  194   185   178 1
  195   186   177 1
  196   187   177 1
  197   188   177 1
  198   189   176 1
  199   190   176 1
  200   191   176 1
  201   192   175 1
  202   193   175 1
  203   194   175 1
  204   195   160 1
  205   196   160 1
  206   197   158 1
  207   198   158 1
  208   199   158 1
  209   200   157 1
  210   201   157 1
  211   202   157 1
  212   203   156 1
  213   204   156 1
  214   205   156 1
  215   206   155 1
  216   207   155 1
  217   208   155 1
  218   209   154 1
  219   210   154 1
  220   211   154 1
  221   212   141 1
  222   213   146 1
  223   214   145 1
  224   215   142 1
  225   216   142 1
  226   217   174 1
  227   218   173 1
  228   219   171 1
  229   220   170 1
  230   221   169 1
  231   222   140 1
  232   223   167 1
  233   224   166 1
  234   225   165 1
  235   226   163 1
  236   227   161 1
  237   228   139 1
  238   229   139 1
  239   230   153 1
  240   231   152 1
  241   232   150 1
  242   233   149 1
  243   234   148 1
  244   235   162 1
  245   65    153 1
  246   65    174 1
@<TRIPOS>SUBSTRUCTURE
      1 CLA               1 ****               0 ****  **** 
      2 LUT             138 ****               0 ****  **** 
