@<TRIPOS>MOLECULE
Cpptraj generated mol2 file.
  235   246     2     0     0
SMALL
USER_CHARGES


@<TRIPOS>ATOM
      1 CAA        78.8840   56.9148   34.6727 a2         1 CLA     -0.055900
      2 CAB        78.5970   60.8944   43.5814 c8         1 CLA     -0.148500
      3 CAC        71.5820   56.7494   42.7971 a2         1 CLA     -0.012600
      4 CAD        74.6066   54.4887   35.7432 ck         1 CLA      0.398800
      5 NA         77.8240   57.4081   38.0009 ns         1 CLA     -0.225500
      6 CBA        80.1764   56.7637   33.9009 a2         1 CLA     -0.135000
      7 CBB        79.7711   60.9990   44.1818 c0         1 CLA     -0.395200
      8 CBC        71.6020   55.3099   43.0760 a3         1 CLA     -0.037700
      9 CBD        76.0759   54.9588   35.4557 a1         1 CLA     -0.053900
     10 NB         77.5730   58.8325   40.5994 nm         1 CLA     -0.295700
     11 OBD        73.9203   53.8129   34.9642 o2         1 CLA     -0.494600
     12 CGA        80.5442   55.2314   33.5387 c4         1 CLA      0.827000
     13 CGD        76.9634   53.8278   35.1195 c4         1 CLA      0.655300
     14 ND         74.9783   56.4419   38.5757 nm         1 CLA     -0.291600
     15 CED        77.1024   51.3563   35.2131 a3         1 CLA      0.005400
     16 CHA        76.4630   55.8768   36.6261 cs         1 CLA     -0.123800
     17 CHB        79.4378   58.7605   39.0568 aa         1 CLA     -0.291900
     18 CHC        76.1045   59.1206   42.6258 aa         1 CLA     -0.090400
     19 CHD        72.9954   56.4345   40.0197 aa         1 CLA     -0.052000
     20 CMA        81.1370   56.6354   37.6653 a3         1 CLA     -0.230700
     21 CMB        80.7323   60.7775   41.1273 a3         1 CLA     -0.180800
     22 CMC        73.5415   58.5291   44.5543 a3         1 CLA     -0.134000
     23 CMD        71.7932   54.5948   37.7117 a3         1 CLA     -0.141100
     24 C1         81.6940   53.2461   34.3340 a2         1 CLA      0.023000
     25 C1A        77.6760   56.5755   36.9091 ac         1 CLA     -0.015100
     26 C1B        78.8042   59.2338   40.2097 cr         1 CLA      0.054700
     27 C1C        74.9507   58.4053   42.2589 cn         1 CLA     -0.005600
     28 C1D        73.6446   56.0627   38.8291 ap         1 CLA     -0.047300
     29 O1A        80.4401   54.8345   32.4034 o2         1 CLA     -0.610800
     30 O1D        78.0061   53.8464   34.4149 o2         1 CLA     -0.558200
     31 C2         81.2635   52.4947   35.5632 c8         1 CLA     -0.325100
     32 C2A        79.0141   56.4819   36.1175 a1         1 CLA      0.098600
     33 C2B        79.3579   60.0747   41.2192 cb         1 CLA      0.088500
     34 C2C        73.7700   58.0445   43.1186 cb         1 CLA      0.053700
     35 C2D        73.1220   55.1995   37.7984 cb         1 CLA      0.058900
     36 O2A        81.1602   54.5257   34.6468 o1         1 CLA     -0.437200
     37 O2D        76.3892   52.5929   35.6442 o1         1 CLA     -0.357600
     38 C3         81.9421   51.4843   36.1200 c5         1 CLA      0.031200
     39 C3A        79.9786   57.3903   36.9833 a1         1 CLA      0.166800
     40 C3B        78.4414   60.2212   42.2627 cb         1 CLA      0.035000
     41 C3C        72.9627   57.2829   42.3760 cb         1 CLA     -0.089900
     42 C3D        74.2218   55.0565   36.9571 cb         1 CLA     -0.035900
     43 C4         81.5465   50.0082   35.9466 a3         1 CLA     -0.053300
     44 C4A        79.0321   57.9704   38.0557 ac         1 CLA      0.001800
     45 C4B        77.3288   59.3268   41.8542 cn         1 CLA     -0.020900
     46 C4C        73.5560   57.1220   41.1017 cr         1 CLA     -0.044400
     47 C4D        75.2972   55.8707   37.4321 c6         1 CLA     -0.046000
     48 C5         83.1448   51.6719   37.0698 a2         1 CLA     -0.070400
     49 C6         83.5983   53.1898   37.0936 a2         1 CLA      0.043900
     50 C7         84.8377   53.3272   37.9633 a2         1 CLA     -0.150000
     51 C8         85.2824   54.8122   38.1432 a1         1 CLA      0.064200
     52 C9         86.6688   54.9527   37.5981 a3         1 CLA     -0.259300
     53 C10        85.2834   55.1407   39.6746 a2         1 CLA     -0.071900
     54 C11        83.9271   55.0771   40.3801 a2         1 CLA      0.014500
     55 C12        83.9852   55.7059   41.8010 a2         1 CLA     -0.112100
     56 C13        82.6484   56.0234   42.4851 a1         1 CLA      0.089200
     57 C14        81.8231   57.0826   41.7238 a3         1 CLA     -0.239100
     58 C15        82.8002   56.3504   43.9850 a2         1 CLA     -0.102200
     59 C16        83.6018   57.6405   44.2621 a2         1 CLA      0.023900
     60 C17        83.8133   57.9635   45.7509 a2         1 CLA     -0.105700
     61 C18        84.5998   59.2836   45.9331 a1         1 CLA      0.206800
     62 C19        84.1542   60.5489   45.1005 a3         1 CLA     -0.280100
     63 C20        84.7090   59.6799   47.4463 a3         1 CLA     -0.280100
     64 NC         74.8070   57.7663   41.0836 nx         1 CLA     -0.309200
     65 MG         76.2781   57.7070   39.5027 mg         1 CLA      0.895000
     66 HMD3       71.0777   55.3511   37.6392 dc         1 CLA      0.064300
     67 HMD2       71.8553   53.9081   36.8508 dc         1 CLA      0.064300
     68 HMD1       71.6385   54.0721   38.6875 dc         1 CLA      0.064300
     69 HMC3       74.2964   59.0748   44.8810 dc         1 CLA      0.052100
     70 HMC2       72.5553   58.9421   44.9301 dc         1 CLA      0.052100
     71 HMC1       73.5677   57.6637   45.1132 dc         1 CLA      0.052100
     72 HMB3       81.4942   60.2740   41.7207 dc         1 CLA      0.063600
     73 HMB2       81.0734   60.8624   40.0654 dc         1 CLA      0.063600
     74 HMB1       80.5424   61.7188   41.5510 dc         1 CLA      0.063600
     75 HMA3       80.7018   55.8855   38.2522 dc         1 CLA      0.058300
     76 HMA2       81.7305   56.2447   36.9277 dc         1 CLA      0.058300
     77 HMA1       81.8128   57.2481   38.2147 dc         1 CLA      0.058300
     78 HED3       77.0881   51.3633   34.1011 dc         1 CLA      0.079300
     79 HED2       78.1413   51.3243   35.5397 dc         1 CLA      0.079300
     80 HED1       76.6308   50.4502   35.6139 dc         1 CLA      0.079300
     81 HBC3       72.0739   54.6487   42.3256 dc         1 CLA      0.016300
     82 HBC2       72.2007   55.3683   43.9860 dc         1 CLA      0.016300
     83 HBC1       70.6060   54.9479   43.2985 dc         1 CLA      0.016300
     84 HBB2       79.8939   61.4768   45.1476 da         1 CLA      0.183000
     85 HBB1       80.6699   60.6854   43.6519 da         1 CLA      0.183000
     86 HBA2       79.9344   57.1819   32.9039 dc         1 CLA      0.029400
     87 HBA1       80.9739   57.2775   34.4321 dc         1 CLA      0.029400
     88 HAC2       71.3293   57.2756   43.7637 dc         1 CLA      0.029300
     89 HAC1       70.8014   57.0004   42.0590 dc         1 CLA      0.029300
     90 HAA2       77.9623   56.6722   34.1868 dc         1 CLA      0.028700
     91 HAA1       78.4939   57.9555   34.7228 dc         1 CLA      0.028700
     92 H203       85.4005   60.4959   47.5474 dc         1 CLA      0.065600
     93 H202       83.7545   59.9926   47.8118 dc         1 CLA      0.065600
     94 H201       85.0750   58.7954   48.0656 dc         1 CLA      0.065600
     95 H193       83.1840   60.7570   45.4566 dc         1 CLA      0.065600
     96 H192       84.7420   61.4428   45.3095 dc         1 CLA      0.065600
     97 H191       84.1237   60.4761   43.9787 dc         1 CLA      0.065600
     98 H172       82.8242   58.0029   46.2377 dc         1 CLA      0.027600
     99 H171       84.3687   57.1942   46.2911 dc         1 CLA      0.027600
    100 H162       84.6261   57.4389   43.8433 dc         1 CLA      0.002900
    101 H161       83.0214   58.5076   43.8459 dc         1 CLA      0.002900
    102 H152       81.8391   56.3820   44.5347 dc         1 CLA      0.029100
    103 H151       83.3757   55.5474   44.4938 dc         1 CLA      0.029100
    104 H143       81.4312   56.8130   40.7471 dc         1 CLA      0.063600
    105 H142       80.9828   57.4632   42.4125 dc         1 CLA      0.063600
    106 H141       82.4662   57.8833   41.3358 dc         1 CLA      0.063600
    107 H122       84.4413   55.0280   42.4988 dc         1 CLA      0.032500
    108 H121       84.5285   56.6452   41.7601 dc         1 CLA      0.032500
    109 H112       83.1836   55.6411   39.7592 dc         1 CLA      0.006600
    110 H111       83.6344   54.0566   40.4519 dc         1 CLA      0.006600
    111 H102       86.0172   54.5523   40.1765 dc         1 CLA      0.024100
    112 H101       85.6020   56.2271   39.7580 dc         1 CLA      0.024100
    113 HHD        72.0257   56.0489   40.1465 da         1 CLA      0.174300
    114 HHC        76.0726   59.6694   43.5588 da         1 CLA      0.136800
    115 HHB        80.4898   59.0250   38.9378 da         1 CLA      0.138300
    116 HBD        75.9792   55.5223   34.5292 dc         1 CLA      0.107700
    117 HAB        77.7688   61.1800   44.1716 da         1 CLA      0.155200
    118 H93        86.8129   54.5789   36.6243 dc         1 CLA      0.069500
    119 H92        86.8231   56.0285   37.5022 dc         1 CLA      0.069500
    120 H91        87.3510   54.5658   38.3044 dc         1 CLA      0.069500
    121 H8         84.6871   55.4270   37.5014 dc         1 CLA      0.029300
    122 H72        84.5350   52.8598   38.9217 dc         1 CLA      0.044400
    123 H71        85.7839   52.8270   37.6334 dc         1 CLA      0.044400
    124 H62        83.8044   53.3429   36.0084 dc         1 CLA      0.015600
    125 H61        82.8039   53.7935   37.5764 dc         1 CLA      0.015600
    126 H52        82.8153   51.4714   38.1214 dc         1 CLA      0.033200
    127 H51        83.9298   51.0123   36.8149 dc         1 CLA      0.033200
    128 H43        80.5332   50.0033   35.4823 dc         1 CLA      0.037000
    129 H42        82.3486   49.5033   35.3476 dc         1 CLA      0.037000
    130 H41        81.5563   49.4811   36.8853 dc         1 CLA      0.037000
    131 H3A        80.3798   58.2326   36.4517 dc         1 CLA      0.041100
    132 H2A        79.2240   55.3861   36.1095 dc         1 CLA      0.083100
    133 H2         80.5603   52.8907   36.3121 da         1 CLA      0.180900
    134 H18        85.6427   59.0990   45.5894 dc         1 CLA     -0.003900
    135 H13        81.9505   55.1637   42.4675 dc         1 CLA      0.019700
    136 H12        81.3280   52.7028   33.4410 dc         1 CLA      0.120400
    137 H11        82.7788   53.1626   34.2187 dc         1 CLA      0.120400
    138 C1         68.1490   60.4771   49.6550 Z1         2 LUT      0.509236
    139 C2         66.8816   60.2821   50.5450 Z2         2 LUT     -0.434695
    140 C3         66.1255   61.6219   50.9267 Z3         2 LUT      0.437453
    141 O3         66.4217   61.8982   52.2688 S1         2 LUT     -0.547129
    142 C4         66.4014   62.8417   49.9987 Z4         2 LUT     -0.468603
    143 C5         66.9557   62.5436   48.6369 Z5         2 LUT      0.279246
    144 C6         67.8444   61.4969   48.4378 Z6         2 LUT     -0.305473
    145 C7         68.1633   61.0237   47.1240 Z7         2 LUT      0.069402
    146 C8         69.2869   61.4944   46.5836 Z8         2 LUT     -0.191631
    147 C9         69.8523   61.1443   45.2839 Z9         2 LUT      0.196698
    148 C10        70.9204   61.7718   44.7555 Y1         2 LUT     -0.208611
    149 C11        71.5279   61.4427   43.5283 Y2         2 LUT      0.030784
    150 C12        72.7142   61.9956   43.0706 Y3         2 LUT     -0.220316
    151 C13        73.5466   61.7760   41.9233 Y4         2 LUT      0.215937
    152 C14        74.8591   62.2978   41.9573 Y5         2 LUT     -0.185793
    153 C15        75.8790   62.2168   40.9796 Y6         2 LUT     -0.057835
    154 C16        68.6969   59.0886   49.2131 Y7         2 LUT     -0.405615
    155 C17        69.1395   61.1516   50.6208 Y7         2 LUT     -0.405615
    156 C18        66.3706   63.4460   47.5569 Y9         2 LUT     -0.369639
    157 C19        69.2046   59.9207   44.5948 W1         2 LUT     -0.333362
    158 C20        73.1717   60.7461   40.8964 W2         2 LUT     -0.323439
    159 C21        87.0735   64.4320   35.1366 Z1         2 LUT      0.406104
    160 C22        88.0160   64.0006   33.9694 Z2         2 LUT     -0.404965
    161 C23        88.2948   64.9648   32.8145 Z3         2 LUT      0.391255
    162 O23        89.2750   64.3678   31.9448 S1         2 LUT     -0.528210
    163 C24        87.1524   65.7661   32.4770 W6         2 LUT     -0.258361
    164 C25        86.0008   65.7943   33.1461 Z5         2 LUT      0.133546
    165 C26        85.7149   64.9420   34.4193 W8         2 LUT     -0.147008
    166 C27        84.7484   65.6208   35.4496 Z7         2 LUT      0.023843
    167 C28        83.7138   64.9746   36.0661 Z8         2 LUT     -0.216987
    168 C29        83.0241   65.4259   37.2995 Z9         2 LUT      0.206524
    169 C30        81.9690   64.6716   37.7345 Y1         2 LUT     -0.215556
    170 C31        81.0613   64.8792   38.7558 Y2         2 LUT      0.025142
    171 C32        80.1628   63.8691   39.1328 Y3         2 LUT     -0.212209
    172 C33        79.1562   63.8921   40.1946 Y4         2 LUT      0.240937
    173 C34        78.1161   63.0127   40.2153 Y5         2 LUT     -0.218862
    174 C35        77.0022   62.9062   41.1493 Y6         2 LUT     -0.023547
    175 C36        87.8145   65.5920   35.9607 Y7         2 LUT     -0.393485
    176 C37        86.7348   63.2789   36.1501 Y7         2 LUT     -0.393485
    177 C38        84.9140   66.7322   32.8138 Y9         2 LUT     -0.387526
    178 C39        83.6067   66.5923   38.0958 W1         2 LUT     -0.322618
    179 C40        79.3740   64.9389   41.1728 W2         2 LUT     -0.358472
    180 H403       78.8347   64.7189   42.0931 R7         2 LUT      0.097720
    181 H402       80.3801   65.2282   41.3799 R7         2 LUT      0.097720
    182 H401       78.7704   65.8171   40.9192 R7         2 LUT      0.097720
    183 H393       84.4997   67.0945   37.6847 R4         2 LUT      0.082505
    184 H392       82.8236   67.3207   38.2943 R4         2 LUT      0.082505
    185 H391       83.9336   66.2299   39.0719 R4         2 LUT      0.082505
    186 H383       85.2052   67.6397   32.2400 R1         2 LUT      0.104030
    187 H382       84.1664   66.1998   32.1813 R1         2 LUT      0.104030
    188 H381       84.4021   67.1439   33.6700 R1         2 LUT      0.104030
    189 H373       87.6039   63.1116   36.9298 T4         2 LUT      0.089537
    190 H372       85.8126   63.3663   36.7104 T4         2 LUT      0.089537
    191 H371       86.7604   62.2991   35.6703 T4         2 LUT      0.089537
    192 H363       87.4784   65.5708   36.9767 T4         2 LUT      0.089537
    193 H362       88.8960   65.5662   36.0586 T4         2 LUT      0.089537
    194 H361       87.5475   66.6101   35.6461 T4         2 LUT      0.089537
    195 H222       88.9809   63.7669   34.3951 U2         2 LUT      0.127376
    196 H221       87.6687   63.0761   33.3676 U2         2 LUT      0.127376
    197 H203       72.6930   59.8733   41.2339 R7         2 LUT      0.087068
    198 H202       72.3528   61.2117   40.2483 R7         2 LUT      0.087068
    199 H201       73.9442   60.3082   40.2989 R7         2 LUT      0.087068
    200 H193       69.4002   58.9368   45.0301 R4         2 LUT      0.089716
    201 H192       68.1808   60.1147   44.5229 R4         2 LUT      0.089716
    202 H191       69.4122   59.9033   43.5390 R4         2 LUT      0.089716
    203 H183       66.9859   63.4051   46.6062 R1         2 LUT      0.094572
    204 H182       65.2308   63.2651   47.4006 R1         2 LUT      0.094572
    205 H181       66.4898   64.4143   47.8923 R1         2 LUT      0.094572
    206 H173       70.0569   61.2858   50.0451 T4         2 LUT      0.093752
    207 H172       68.7886   62.1207   50.9471 T4         2 LUT      0.093752
    208 H171       69.3207   60.5396   51.5209 T4         2 LUT      0.093752
    209 H163       69.1430   58.4295   49.9475 T4         2 LUT      0.093752
    210 H162       68.0346   58.4129   48.6499 T4         2 LUT      0.093752
    211 H161       69.5306   59.3169   48.5034 T4         2 LUT      0.093752
    212 HO3        65.8644   61.3016   52.7923 Q1         2 LUT      0.300121
    213 H8         69.8611   62.2560   47.1806 U7         2 LUT      0.080784
    214 H7         67.5720   60.2949   46.5518 U6         2 LUT      0.042190
    215 H42        65.5059   63.4575   49.9104 U5         2 LUT      0.145166
    216 H41        67.1515   63.4423   50.5862 U5         2 LUT      0.145166
    217 H35        77.1886   63.4984   42.0547 T3         2 LUT      0.077919
    218 H34        78.1080   62.3390   39.3887 T2         2 LUT      0.073626
    219 H32        80.1443   62.9206   38.5786 T1         2 LUT      0.092510
    220 H31        80.9750   65.7939   39.2919 U9         2 LUT      0.070048
    221 H30        81.8130   63.7896   37.1217 U8         2 LUT      0.085442
    222 H3         65.0867   61.4806   50.7577 U3         2 LUT     -0.031596
    223 H28        83.3868   63.9140   35.6839 U7         2 LUT      0.084728
    224 H27        85.1419   66.6208   35.7243 U6         2 LUT      0.087291
    225 H26        85.1735   64.0275   34.0695 Q6         2 LUT      0.075325
    226 H24        87.4413   66.4471   31.6308 Q5         2 LUT      0.094482
    227 H23        88.8813   65.7284   33.3400 U3         2 LUT     -0.024869
    228 H22        66.1616   59.6594   50.0038 U2         2 LUT      0.127376
    229 H21        67.0860   59.5775   51.4487 U2         2 LUT      0.127376
    230 H15        75.6888   61.7678   39.9857 T3         2 LUT      0.093200
    231 H14        75.2340   62.7544   42.8702 T2         2 LUT      0.068865
    232 H12        73.3062   62.5520   43.7699 T1         2 LUT      0.095507
    233 H11        70.9683   60.7730   42.8821 U9         2 LUT      0.068930
    234 H10        71.4464   62.5507   45.3695 U8         2 LUT      0.083911
    235 H1         88.9160   63.9472   31.1841 Q1         2 LUT      0.297311
@<TRIPOS>BOND
    1     6     1 1
    2     7     2 1
    3     8     3 1
    4     9     4 1
    5    11     4 1
    6    12     6 1
    7    13     9 1
    8    16     9 1
    9    25     5 1
   10    25    16 1
   11    26    10 1
   12    26    17 1
   13    27    18 1
   14    28    14 1
   15    28    19 1
   16    29    12 1
   17    30    13 1
   18    31    24 1
   19    32     1 1
   20    32    25 1
   21    33    21 1
   22    33    26 1
   23    34    22 1
   24    34    27 1
   25    35    23 1
   26    35    28 1
   27    36    12 1
   28    36    24 1
   29    37    13 1
   30    37    15 1
   31    38    31 1
   32    39    20 1
   33    39    32 1
   34    40     2 1
   35    40    33 1
   36    41     3 1
   37    41    34 1
   38    42     4 1
   39    42    35 1
   40    43    38 1
   41    44     5 1
   42    44    17 1
   43    44    39 1
   44    45    10 1
   45    45    18 1
   46    45    40 1
   47    46    19 1
   48    46    41 1
   49    47    14 1
   50    47    16 1
   51    47    42 1
   52    48    38 1
   53    49    48 1
   54    50    49 1
   55    51    50 1
   56    52    51 1
   57    53    51 1
   58    54    53 1
   59    55    54 1
   60    56    55 1
   61    57    56 1
   62    58    56 1
   63    59    58 1
   64    60    59 1
   65    61    60 1
   66    62    61 1
   67    63    61 1
   68    64    27 1
   69    64    46 1
   70    65     5 1
   71    65    10 1
   72    65    64 1
   73    65    14 1
   74    66    23 1
   75    67    23 1
   76    68    23 1
   77    69    22 1
   78    70    22 1
   79    71    22 1
   80    72    21 1
   81    73    21 1
   82    74    21 1
   83    75    20 1
   84    76    20 1
   85    77    20 1
   86    78    15 1
   87    79    15 1
   88    80    15 1
   89    81     8 1
   90    82     8 1
   91    83     8 1
   92    84     7 1
   93    85     7 1
   94    86     6 1
   95    87     6 1
   96    88     3 1
   97    89     3 1
   98    90     1 1
   99    91     1 1
  100    92    63 1
  101    93    63 1
  102    94    63 1
  103    95    62 1
  104    96    62 1
  105    97    62 1
  106    98    60 1
  107    99    60 1
  108   100    59 1
  109   101    59 1
  110   102    58 1
  111   103    58 1
  112   104    57 1
  113   105    57 1
  114   106    57 1
  115   107    55 1
  116   108    55 1
  117   109    54 1
  118   110    54 1
  119   111    53 1
  120   112    53 1
  121   113    19 1
  122   114    18 1
  123   115    17 1
  124   116     9 1
  125   117     2 1
  126   118    52 1
  127   119    52 1
  128   120    52 1
  129   121    51 1
  130   122    50 1
  131   123    50 1
  132   124    49 1
  133   125    49 1
  134   126    48 1
  135   127    48 1
  136   128    43 1
  137   129    43 1
  138   130    43 1
  139   131    39 1
  140   132    32 1
  141   133    31 1
  142   134    61 1
  143   135    56 1
  144   136    24 1
  145   137    24 1
  146   139   138 1
  147   140   139 1
  148   141   140 1
  149   142   140 1
  150   143   142 1
  151   144   138 1
  152   144   143 1
  153   145   144 1
  154   146   145 1
  155   147   146 1
  156   148   147 1
  157   149   148 1
  158   150   149 1
  159   151   150 1
  160   152   151 1
  161   153   152 1
  162   154   138 1
  163   155   138 1
  164   156   143 1
  165   157   147 1
  166   158   151 1
  167   160   159 1
  168   161   160 1
  169   162   161 1
  170   163   161 1
  171   164   163 1
  172   165   159 1
  173   165   164 1
  174   166   165 1
  175   167   166 1
  176   168   167 1
  177   169   168 1
  178   170   169 1
  179   171   170 1
  180   172   171 1
  181   173   172 1
  182   174   153 1
  183   174   173 1
  184   175   159 1
  185   176   159 1
  186   177   164 1
  187   178   168 1
  188   179   172 1
  189   180   179 1
  190   181   179 1
  191   182   179 1
  192   183   178 1
  193   184   178 1
  194   185   178 1
  195   186   177 1
  196   187   177 1
  197   188   177 1
  198   189   176 1
  199   190   176 1
  200   191   176 1
  201   192   175 1
  202   193   175 1
  203   194   175 1
  204   195   160 1
  205   196   160 1
  206   197   158 1
  207   198   158 1
  208   199   158 1
  209   200   157 1
  210   201   157 1
  211   202   157 1
  212   203   156 1
  213   204   156 1
  214   205   156 1
  215   206   155 1
  216   207   155 1
  217   208   155 1
  218   209   154 1
  219   210   154 1
  220   211   154 1
  221   212   141 1
  222   213   146 1
  223   214   145 1
  224   215   142 1
  225   216   142 1
  226   217   174 1
  227   218   173 1
  228   219   171 1
  229   220   170 1
  230   221   169 1
  231   222   140 1
  232   223   167 1
  233   224   166 1
  234   225   165 1
  235   226   163 1
  236   227   161 1
  237   228   139 1
  238   229   139 1
  239   230   153 1
  240   231   152 1
  241   232   150 1
  242   233   149 1
  243   234   148 1
  244   235   162 1
  245   65    153 1
  246   65    174 1
@<TRIPOS>SUBSTRUCTURE
      1 CLA               1 ****               0 ****  **** 
      2 LUT             138 ****               0 ****  **** 
