@<TRIPOS>MOLECULE
Cpptraj generated mol2 file.
  235   246     2     0     0
SMALL
USER_CHARGES


@<TRIPOS>ATOM
      1 CAA        78.5133   57.3978   34.4168 a2         1 CLA     -0.055900
      2 CAB        77.8245   61.4674   43.3266 c8         1 CLA     -0.148500
      3 CAC        71.2928   56.8643   42.6891 a2         1 CLA     -0.012600
      4 CAD        74.3421   54.8864   35.5435 ck         1 CLA      0.398800
      5 NA         77.3444   57.8023   37.9557 ns         1 CLA     -0.225500
      6 CBA        79.8135   57.2857   33.5582 a2         1 CLA     -0.135000
      7 CBB        78.9200   61.9581   43.9621 c0         1 CLA     -0.395200
      8 CBC        71.4408   55.3142   43.0148 a3         1 CLA     -0.037700
      9 CBD        75.7913   55.3759   35.3602 a1         1 CLA     -0.053900
     10 NB         76.9765   59.4573   40.4378 nm         1 CLA     -0.295700
     11 OBD        73.7163   54.1760   34.7221 o2         1 CLA     -0.494600
     12 CGA        80.4026   55.8146   33.5513 c4         1 CLA      0.827000
     13 CGD        76.7541   54.2009   35.3670 c4         1 CLA      0.655300
     14 ND         74.5799   56.8120   38.3625 nm         1 CLA     -0.291600
     15 CED        77.3803   52.2153   36.5239 a3         1 CLA      0.005400
     16 CHA        76.1688   56.3165   36.4856 cs         1 CLA     -0.123800
     17 CHB        78.9743   59.2355   39.0085 aa         1 CLA     -0.291900
     18 CHC        75.6883   59.4829   42.4693 aa         1 CLA     -0.090400
     19 CHD        72.5659   56.8306   39.8174 aa         1 CLA     -0.052000
     20 CMA        80.8713   57.3417   37.2659 a3         1 CLA     -0.230700
     21 CMB        80.1502   61.3991   40.9312 a3         1 CLA     -0.180800
     22 CMC        73.4185   58.3958   44.4525 a3         1 CLA     -0.134000
     23 CMD        71.4807   54.8812   37.5153 a3         1 CLA     -0.141100
     24 C1         81.7977   54.2217   34.6423 a2         1 CLA      0.023000
     25 C1A        77.2630   57.0708   36.7743 ac         1 CLA     -0.015100
     26 C1B        78.2722   59.7557   40.0678 cr         1 CLA      0.054700
     27 C1C        74.5822   58.7006   42.0993 cn         1 CLA     -0.005600
     28 C1D        73.2497   56.4716   38.5914 ap         1 CLA     -0.047300
     29 O1A        79.9917   54.9822   32.7361 o2         1 CLA     -0.610800
     30 O1D        77.5918   53.9622   34.4749 o2         1 CLA     -0.558200
     31 C2         81.1498   53.5922   35.7791 c8         1 CLA     -0.325100
     32 C2A        78.6449   56.9615   36.0005 a1         1 CLA      0.098600
     33 C2B        78.8439   60.6886   41.0595 cb         1 CLA      0.088500
     34 C2C        73.5098   58.2520   42.9301 cb         1 CLA      0.053700
     35 C2D        72.8397   55.5569   37.5790 cb         1 CLA      0.058900
     36 O2A        81.2736   55.6174   34.5687 o1         1 CLA     -0.437200
     37 O2D        76.4137   53.3082   36.3256 o1         1 CLA     -0.357600
     38 C3         81.5990   52.7950   36.7908 c5         1 CLA      0.031200
     39 C3A        79.5260   57.9463   36.8909 a1         1 CLA      0.166800
     40 C3B        77.8513   60.7425   42.0921 cb         1 CLA      0.035000
     41 C3C        72.5813   57.5761   42.1410 cb         1 CLA     -0.089900
     42 C3D        73.9106   55.4967   36.7889 cb         1 CLA     -0.035900
     43 C4         81.6152   51.3433   36.7080 a3         1 CLA     -0.053300
     44 C4A        78.5785   58.2608   38.1203 ac         1 CLA      0.001800
     45 C4B        76.7416   59.8686   41.6620 cn         1 CLA     -0.020900
     46 C4C        73.1567   57.4514   40.9040 cr         1 CLA     -0.044400
     47 C4D        74.9648   56.2197   37.2696 c6         1 CLA     -0.046000
     48 C5         82.0147   53.4400   38.0718 a2         1 CLA     -0.070400
     49 C6         83.2347   54.3116   38.0264 a2         1 CLA      0.043900
     50 C7         83.7441   54.8778   39.3870 a2         1 CLA     -0.150000
     51 C8         84.9263   55.8793   39.3133 a1         1 CLA      0.064200
     52 C9         86.2302   55.3724   38.7219 a3         1 CLA     -0.259300
     53 C10        85.1790   56.6121   40.6565 a2         1 CLA     -0.071900
     54 C11        84.0370   57.3965   41.2500 a2         1 CLA      0.014500
     55 C12        84.6805   58.4140   42.1731 a2         1 CLA     -0.112100
     56 C13        85.4579   57.9046   43.4596 a1         1 CLA      0.089200
     57 C14        84.6121   56.9465   44.3059 a3         1 CLA     -0.239100
     58 C15        85.9336   59.0964   44.4381 a2         1 CLA     -0.102200
     59 C16        84.8534   60.0580   44.9476 a2         1 CLA      0.023900
     60 C17        85.2407   60.7183   46.2282 a2         1 CLA     -0.105700
     61 C18        84.3834   62.0151   46.6194 a1         1 CLA      0.206800
     62 C19        83.0799   61.6229   47.4675 a3         1 CLA     -0.280100
     63 C20        85.3093   63.1391   47.2726 a3         1 CLA     -0.280100
     64 NC         74.4177   58.0801   40.8863 nx         1 CLA     -0.309200
     65 MG         75.8017   58.1217   39.3621 mg         1 CLA      0.895000
     66 HMD3       71.6355   53.8959   37.1840 dc         1 CLA      0.064300
     67 HMD2       71.1298   55.0411   38.5188 dc         1 CLA      0.064300
     68 HMD1       70.7562   55.3405   36.7931 dc         1 CLA      0.064300
     69 HMC3       72.7481   59.2205   44.7383 dc         1 CLA      0.052100
     70 HMC2       73.0124   57.4938   44.9466 dc         1 CLA      0.052100
     71 HMC1       74.4154   58.5530   44.7498 dc         1 CLA      0.052100
     72 HMB3       80.0181   62.3784   41.5286 dc         1 CLA      0.063600
     73 HMB2       80.9370   60.8116   41.3212 dc         1 CLA      0.063600
     74 HMB1       80.4622   61.6510   39.9682 dc         1 CLA      0.063600
     75 HMA3       81.2216   57.8057   38.1938 dc         1 CLA      0.058300
     76 HMA2       80.7758   56.2985   37.5677 dc         1 CLA      0.058300
     77 HMA1       81.6238   57.4327   36.4708 dc         1 CLA      0.058300
     78 HED3       77.4062   51.5315   35.6480 dc         1 CLA      0.079300
     79 HED2       78.3942   52.5952   36.8000 dc         1 CLA      0.079300
     80 HED1       76.9753   51.7399   37.3611 dc         1 CLA      0.079300
     81 HBC3       70.4895   55.0108   43.3558 dc         1 CLA      0.016300
     82 HBC2       71.6989   54.5938   42.1979 dc         1 CLA      0.016300
     83 HBC1       72.2572   55.2378   43.7411 dc         1 CLA      0.016300
     84 HBB2       78.8508   62.5177   44.8526 da         1 CLA      0.183000
     85 HBB1       79.9477   61.7979   43.6261 da         1 CLA      0.183000
     86 HBA2       79.6837   57.6544   32.5138 dc         1 CLA      0.029400
     87 HBA1       80.6286   57.9350   33.9139 dc         1 CLA      0.029400
     88 HAC2       70.9489   57.2596   43.6497 dc         1 CLA      0.029300
     89 HAC1       70.4968   57.1108   42.0077 dc         1 CLA      0.029300
     90 HAA2       77.9040   56.7124   33.9211 dc         1 CLA      0.028700
     91 HAA1       78.1374   58.3801   34.3876 dc         1 CLA      0.028700
     92 H203       84.8224   64.0958   47.3993 dc         1 CLA      0.065600
     93 H202       85.5718   62.7879   48.2573 dc         1 CLA      0.065600
     94 H201       86.1913   63.3085   46.6830 dc         1 CLA      0.065600
     95 H193       83.3977   61.0488   48.3610 dc         1 CLA      0.065600
     96 H192       82.5931   62.5517   47.7726 dc         1 CLA      0.065600
     97 H191       82.3375   61.0555   46.7903 dc         1 CLA      0.065600
     98 H172       85.3380   60.0272   47.0569 dc         1 CLA      0.027600
     99 H171       86.2630   60.9802   46.0414 dc         1 CLA      0.027600
    100 H162       84.5741   60.7607   44.2000 dc         1 CLA      0.002900
    101 H161       84.0352   59.4638   45.2369 dc         1 CLA      0.002900
    102 H152       86.4114   58.4844   45.1953 dc         1 CLA      0.029100
    103 H151       86.7159   59.6944   43.9342 dc         1 CLA      0.029100
    104 H143       84.6009   56.0243   43.7375 dc         1 CLA      0.063600
    105 H142       84.9990   56.7625   45.3012 dc         1 CLA      0.063600
    106 H141       83.6118   57.2691   44.3238 dc         1 CLA      0.063600
    107 H122       85.4125   58.9904   41.6185 dc         1 CLA      0.032500
    108 H121       83.8612   59.0922   42.5315 dc         1 CLA      0.032500
    109 H112       83.4922   57.9762   40.4893 dc         1 CLA      0.006600
    110 H111       83.4531   56.6319   41.7928 dc         1 CLA      0.006600
    111 H102       85.5001   55.9216   41.3886 dc         1 CLA      0.024100
    112 H101       85.9249   57.3042   40.5068 dc         1 CLA      0.024100
    113 HHD        71.5853   56.4219   39.9763 da         1 CLA      0.174300
    114 HHC        75.6962   59.9659   43.4595 da         1 CLA      0.136800
    115 HHB        80.0330   59.5401   39.0149 da         1 CLA      0.138300
    116 HBD        75.9164   55.8174   34.3578 dc         1 CLA      0.107700
    117 HAB        76.8245   61.7137   43.6901 da         1 CLA      0.155200
    118 H93        86.0192   55.4140   37.6603 dc         1 CLA      0.069500
    119 H92        87.0980   55.9697   39.0065 dc         1 CLA      0.069500
    120 H91        86.3658   54.3353   39.0682 dc         1 CLA      0.069500
    121 H8         84.5461   56.7082   38.7235 dc         1 CLA      0.029300
    122 H72        82.8828   55.3402   39.9251 dc         1 CLA      0.044400
    123 H71        84.1743   54.0035   39.9064 dc         1 CLA      0.044400
    124 H62        83.9857   53.7383   37.4528 dc         1 CLA      0.015600
    125 H61        83.0154   55.1297   37.4085 dc         1 CLA      0.015600
    126 H52        81.2486   54.2101   38.2506 dc         1 CLA      0.033200
    127 H51        82.2492   52.6940   38.8134 dc         1 CLA      0.033200
    128 H43        81.1785   50.8757   35.8335 dc         1 CLA      0.037000
    129 H42        82.6072   50.8195   36.7817 dc         1 CLA      0.037000
    130 H41        80.8995   51.0251   37.4764 dc         1 CLA      0.037000
    131 H3A        79.6877   58.8428   36.3143 dc         1 CLA      0.041100
    132 H2A        79.0303   55.9833   36.0476 dc         1 CLA      0.083100
    133 H2         80.1154   53.9180   35.8541 da         1 CLA      0.180900
    134 H18        84.0428   62.4075   45.6763 dc         1 CLA     -0.003900
    135 H13        86.3436   57.3165   43.0952 dc         1 CLA      0.019700
    136 H12        81.7636   53.6270   33.7862 dc         1 CLA      0.120400
    137 H11        82.7757   54.2956   34.9221 dc         1 CLA      0.120400
    138 C1         68.4248   60.6288   50.0700 Z1         2 LUT      0.509236
    139 C2         67.1804   60.6469   50.7708 Z2         2 LUT     -0.434695
    140 C3         66.4156   61.9463   51.1111 Z3         2 LUT      0.437453
    141 O3         66.9516   62.6569   52.2426 S1         2 LUT     -0.547129
    142 C4         66.5940   62.9622   49.9725 Z4         2 LUT     -0.468603
    143 C5         67.3817   62.5710   48.7636 Z5         2 LUT      0.279246
    144 C6         68.3876   61.6287   48.8190 Z6         2 LUT     -0.305473
    145 C7         68.8806   61.0218   47.5948 Z7         2 LUT      0.069402
    146 C8         69.6603   61.7532   46.7617 Z8         2 LUT     -0.191631
    147 C9         70.2545   61.4062   45.4174 Z9         2 LUT      0.196698
    148 C10        71.1432   62.2616   44.8716 Y1         2 LUT     -0.208611
    149 C11        71.9314   62.0889   43.6312 Y2         2 LUT      0.030784
    150 C12        73.0948   62.7706   43.2996 Y3         2 LUT     -0.220316
    151 C13        73.8551   62.7156   42.0955 Y4         2 LUT      0.215937
    152 C14        75.0479   63.4090   42.0695 Y5         2 LUT     -0.185793
    153 C15        76.0821   63.5802   41.1077 Y6         2 LUT     -0.057835
    154 C16        68.8550   59.2065   49.6976 Y7         2 LUT     -0.405615
    155 C17        69.4949   61.2920   51.0142 Y7         2 LUT     -0.405615
    156 C18        66.7783   63.2116   47.4647 Y9         2 LUT     -0.369639
    157 C19        69.7246   60.1498   44.8096 W1         2 LUT     -0.333362
    158 C20        73.3511   61.8499   40.9283 W2         2 LUT     -0.323439
    159 C21        87.8194   64.6009   35.1100 Z1         2 LUT      0.406104
    160 C22        88.5948   64.1904   33.8495 Z2         2 LUT     -0.404965
    161 C23        88.5614   65.1852   32.6568 Z3         2 LUT      0.391255
    162 O23        89.3125   64.4694   31.5917 S1         2 LUT     -0.528210
    163 C24        87.1830   65.8296   32.4956 W6         2 LUT     -0.258361
    164 C25        86.1672   65.7957   33.3882 Z5         2 LUT      0.133546
    165 C26        86.3225   64.9305   34.6902 W8         2 LUT     -0.147008
    166 C27        85.5958   65.4023   35.9838 Z7         2 LUT      0.023843
    167 C28        84.2814   65.2204   36.2634 Z8         2 LUT     -0.216987
    168 C29        83.5908   65.7666   37.4359 Z9         2 LUT      0.206524
    169 C30        82.3745   65.1768   37.7168 Y1         2 LUT     -0.215556
    170 C31        81.5312   65.5914   38.8285 Y2         2 LUT      0.025142
    171 C32        80.3958   64.8174   39.1881 Y3         2 LUT     -0.212209
    172 C33        79.5540   65.0333   40.3745 Y4         2 LUT      0.240937
    173 C34        78.3485   64.2898   40.4446 Y5         2 LUT     -0.218862
    174 C35        77.2883   64.2464   41.3574 Y6         2 LUT     -0.023547
    175 C36        88.6996   65.7210   35.7989 Y7         2 LUT     -0.393485
    176 C37        87.6977   63.4515   36.0866 Y7         2 LUT     -0.393485
    177 C38        84.9067   66.6629   33.2203 Y9         2 LUT     -0.387526
    178 C39        84.1682   66.9683   38.0783 W1         2 LUT     -0.322618
    179 C40        79.9651   65.9392   41.4783 W2         2 LUT     -0.358472
    180 H403       79.7839   65.6433   42.4485 R7         2 LUT      0.097720
    181 H402       81.0324   66.1082   41.4357 R7         2 LUT      0.097720
    182 H401       79.5876   66.9216   41.4315 R7         2 LUT      0.097720
    183 H393       84.8646   66.8260   38.8116 R4         2 LUT      0.082505
    184 H392       84.6863   67.6411   37.3766 R4         2 LUT      0.082505
    185 H391       83.3095   67.4453   38.4501 R4         2 LUT      0.082505
    186 H383       84.8614   67.2604   34.2127 R1         2 LUT      0.104030
    187 H382       84.9369   67.4547   32.4475 R1         2 LUT      0.104030
    188 H381       83.8949   66.0688   33.0480 R1         2 LUT      0.104030
    189 H373       88.7315   63.2062   36.3963 T4         2 LUT      0.089537
    190 H372       87.0339   63.6059   36.9536 T4         2 LUT      0.089537
    191 H371       87.2405   62.4916   35.6486 T4         2 LUT      0.089537
    192 H363       89.6943   65.3916   35.9935 T4         2 LUT      0.089537
    193 H362       88.6717   66.6735   35.2425 T4         2 LUT      0.089537
    194 H361       88.4532   65.9558   36.8380 T4         2 LUT      0.089537
    195 H222       89.6747   63.9421   34.0019 U2         2 LUT      0.127376
    196 H221       88.1809   63.2633   33.3513 U2         2 LUT      0.127376
    197 H203       72.7972   61.0352   41.2019 R7         2 LUT      0.087068
    198 H202       72.7286   62.5041   40.2857 R7         2 LUT      0.087068
    199 H201       74.1561   61.3690   40.3903 R7         2 LUT      0.087068
    200 H193       70.0561   59.8826   43.7841 R4         2 LUT      0.089716
    201 H192       69.8045   59.2953   45.4781 R4         2 LUT      0.089716
    202 H191       68.6406   60.2312   44.7125 R4         2 LUT      0.089716
    203 H183       65.6928   63.2918   47.5139 R1         2 LUT      0.094572
    204 H182       67.1596   64.2353   47.2941 R1         2 LUT      0.094572
    205 H181       67.0855   62.7298   46.5060 R1         2 LUT      0.094572
    206 H173       70.5051   61.2984   50.6891 T4         2 LUT      0.093752
    207 H172       69.2656   62.3059   51.1689 T4         2 LUT      0.093752
    208 H171       69.6178   60.7849   51.9568 T4         2 LUT      0.093752
    209 H163       68.1596   58.6333   49.0606 T4         2 LUT      0.093752
    210 H162       69.8683   59.2446   49.2158 T4         2 LUT      0.093752
    211 H161       69.0121   58.7557   50.6815 T4         2 LUT      0.093752
    212 HO3        66.5935   62.2987   53.1159 Q1         2 LUT      0.300121
    213 H8         69.9623   62.7166   47.1744 U7         2 LUT      0.080784
    214 H7         68.7464   59.9673   47.3299 U6         2 LUT      0.042190
    215 H42        65.6979   63.3671   49.7457 U5         2 LUT      0.145166
    216 H41        67.1016   63.8731   50.3089 U5         2 LUT      0.145166
    217 H35        77.3718   64.8189   42.2924 T3         2 LUT      0.077919
    218 H34        78.2691   63.7027   39.5083 T2         2 LUT      0.073626
    219 H32        80.1235   63.9724   38.5944 T1         2 LUT      0.092510
    220 H31        81.8032   66.5489   39.2608 U9         2 LUT      0.070048
    221 H30        82.0174   64.3823   37.0577 U8         2 LUT      0.085442
    222 H3         65.3639   61.6940   51.3487 U3         2 LUT     -0.031596
    223 H28        83.7866   64.6539   35.5025 U7         2 LUT      0.084728
    224 H27        86.1628   65.8241   36.8238 U6         2 LUT      0.087291
    225 H26        85.8921   63.9437   34.3208 Q6         2 LUT      0.075325
    226 H24        86.9320   66.4995   31.6162 Q5         2 LUT      0.094482
    227 H23        89.2229   65.9113   33.0677 U3         2 LUT     -0.024869
    228 H22        66.6396   60.0841   49.9740 U2         2 LUT      0.127376
    229 H21        67.1331   59.9589   51.5694 U2         2 LUT      0.127376
    230 H15        75.7795   62.9950   40.1937 T3         2 LUT      0.093200
    231 H14        75.3183   63.9899   43.0054 T2         2 LUT      0.068865
    232 H12        73.5128   63.3768   44.0494 T1         2 LUT      0.095507
    233 H11        71.5165   61.4224   42.9128 U9         2 LUT      0.068930
    234 H10        71.5187   63.2086   45.4042 U8         2 LUT      0.083911
    235 H1         89.1294   64.7983   30.7090 Q1         2 LUT      0.297311
@<TRIPOS>BOND
    1     6     1 1
    2     7     2 1
    3     8     3 1
    4     9     4 1
    5    11     4 1
    6    12     6 1
    7    13     9 1
    8    16     9 1
    9    25     5 1
   10    25    16 1
   11    26    10 1
   12    26    17 1
   13    27    18 1
   14    28    14 1
   15    28    19 1
   16    29    12 1
   17    30    13 1
   18    31    24 1
   19    32     1 1
   20    32    25 1
   21    33    21 1
   22    33    26 1
   23    34    22 1
   24    34    27 1
   25    35    23 1
   26    35    28 1
   27    36    12 1
   28    36    24 1
   29    37    13 1
   30    37    15 1
   31    38    31 1
   32    39    20 1
   33    39    32 1
   34    40     2 1
   35    40    33 1
   36    41     3 1
   37    41    34 1
   38    42     4 1
   39    42    35 1
   40    43    38 1
   41    44     5 1
   42    44    17 1
   43    44    39 1
   44    45    10 1
   45    45    18 1
   46    45    40 1
   47    46    19 1
   48    46    41 1
   49    47    14 1
   50    47    16 1
   51    47    42 1
   52    48    38 1
   53    49    48 1
   54    50    49 1
   55    51    50 1
   56    52    51 1
   57    53    51 1
   58    54    53 1
   59    55    54 1
   60    56    55 1
   61    57    56 1
   62    58    56 1
   63    59    58 1
   64    60    59 1
   65    61    60 1
   66    62    61 1
   67    63    61 1
   68    64    27 1
   69    64    46 1
   70    65     5 1
   71    65    10 1
   72    65    64 1
   73    65    14 1
   74    66    23 1
   75    67    23 1
   76    68    23 1
   77    69    22 1
   78    70    22 1
   79    71    22 1
   80    72    21 1
   81    73    21 1
   82    74    21 1
   83    75    20 1
   84    76    20 1
   85    77    20 1
   86    78    15 1
   87    79    15 1
   88    80    15 1
   89    81     8 1
   90    82     8 1
   91    83     8 1
   92    84     7 1
   93    85     7 1
   94    86     6 1
   95    87     6 1
   96    88     3 1
   97    89     3 1
   98    90     1 1
   99    91     1 1
  100    92    63 1
  101    93    63 1
  102    94    63 1
  103    95    62 1
  104    96    62 1
  105    97    62 1
  106    98    60 1
  107    99    60 1
  108   100    59 1
  109   101    59 1
  110   102    58 1
  111   103    58 1
  112   104    57 1
  113   105    57 1
  114   106    57 1
  115   107    55 1
  116   108    55 1
  117   109    54 1
  118   110    54 1
  119   111    53 1
  120   112    53 1
  121   113    19 1
  122   114    18 1
  123   115    17 1
  124   116     9 1
  125   117     2 1
  126   118    52 1
  127   119    52 1
  128   120    52 1
  129   121    51 1
  130   122    50 1
  131   123    50 1
  132   124    49 1
  133   125    49 1
  134   126    48 1
  135   127    48 1
  136   128    43 1
  137   129    43 1
  138   130    43 1
  139   131    39 1
  140   132    32 1
  141   133    31 1
  142   134    61 1
  143   135    56 1
  144   136    24 1
  145   137    24 1
  146   139   138 1
  147   140   139 1
  148   141   140 1
  149   142   140 1
  150   143   142 1
  151   144   138 1
  152   144   143 1
  153   145   144 1
  154   146   145 1
  155   147   146 1
  156   148   147 1
  157   149   148 1
  158   150   149 1
  159   151   150 1
  160   152   151 1
  161   153   152 1
  162   154   138 1
  163   155   138 1
  164   156   143 1
  165   157   147 1
  166   158   151 1
  167   160   159 1
  168   161   160 1
  169   162   161 1
  170   163   161 1
  171   164   163 1
  172   165   159 1
  173   165   164 1
  174   166   165 1
  175   167   166 1
  176   168   167 1
  177   169   168 1
  178   170   169 1
  179   171   170 1
  180   172   171 1
  181   173   172 1
  182   174   153 1
  183   174   173 1
  184   175   159 1
  185   176   159 1
  186   177   164 1
  187   178   168 1
  188   179   172 1
  189   180   179 1
  190   181   179 1
  191   182   179 1
  192   183   178 1
  193   184   178 1
  194   185   178 1
  195   186   177 1
  196   187   177 1
  197   188   177 1
  198   189   176 1
  199   190   176 1
  200   191   176 1
  201   192   175 1
  202   193   175 1
  203   194   175 1
  204   195   160 1
  205   196   160 1
  206   197   158 1
  207   198   158 1
  208   199   158 1
  209   200   157 1
  210   201   157 1
  211   202   157 1
  212   203   156 1
  213   204   156 1
  214   205   156 1
  215   206   155 1
  216   207   155 1
  217   208   155 1
  218   209   154 1
  219   210   154 1
  220   211   154 1
  221   212   141 1
  222   213   146 1
  223   214   145 1
  224   215   142 1
  225   216   142 1
  226   217   174 1
  227   218   173 1
  228   219   171 1
  229   220   170 1
  230   221   169 1
  231   222   140 1
  232   223   167 1
  233   224   166 1
  234   225   165 1
  235   226   163 1
  236   227   161 1
  237   228   139 1
  238   229   139 1
  239   230   153 1
  240   231   152 1
  241   232   150 1
  242   233   149 1
  243   234   148 1
  244   235   162 1
  245   65    153 1
  246   65    174 1
@<TRIPOS>SUBSTRUCTURE
      1 CLA               1 ****               0 ****  **** 
      2 LUT             138 ****               0 ****  **** 
