@<TRIPOS>MOLECULE
Cpptraj generated mol2 file.
  235   246     2     0     0
SMALL
USER_CHARGES


@<TRIPOS>ATOM
      1 CAA        79.1346   58.8378   34.2886 a2         1 CLA     -0.055900
      2 CAB        78.5264   62.9835   42.8682 c8         1 CLA     -0.148500
      3 CAC        71.8514   58.4582   42.3863 a2         1 CLA     -0.012600
      4 CAD        75.1038   55.8846   35.3808 ck         1 CLA      0.398800
      5 NA         77.9752   59.0085   37.6696 ns         1 CLA     -0.225500
      6 CBA        80.5624   58.8707   33.5831 a2         1 CLA     -0.135000
      7 CBB        79.5355   62.9324   43.7738 c0         1 CLA     -0.395200
      8 CBC        72.0646   57.0901   43.0396 a3         1 CLA     -0.037700
      9 CBD        76.5725   56.4880   35.0096 a1         1 CLA     -0.053900
     10 NB         77.7330   60.7407   40.0594 nm         1 CLA     -0.295700
     11 OBD        74.5203   55.0675   34.6380 o2         1 CLA     -0.494600
     12 CGA        81.0906   57.5174   33.2085 c4         1 CLA      0.827000
     13 CGD        77.6296   55.3726   34.7356 c4         1 CLA      0.655300
     14 ND         75.3224   57.9980   38.1763 nm         1 CLA     -0.291600
     15 CED        78.5291   53.2930   35.6209 a3         1 CLA      0.005400
     16 CHA        76.8043   57.4571   36.2620 cs         1 CLA     -0.123800
     17 CHB        79.6267   60.6031   38.6323 aa         1 CLA     -0.291900
     18 CHC        76.1396   61.2562   41.8627 aa         1 CLA     -0.090400
     19 CHD        73.3397   57.9793   39.6198 aa         1 CLA     -0.052000
     20 CMA        81.3386   58.3668   37.1311 a3         1 CLA     -0.230700
     21 CMB        80.9081   62.4162   40.7046 a3         1 CLA     -0.180800
     22 CMC        73.7360   60.5299   43.8911 a3         1 CLA     -0.134000
     23 CMD        72.1284   55.9629   37.3810 a3         1 CLA     -0.141100
     24 C1         82.2695   55.5019   33.9559 a2         1 CLA      0.023000
     25 C1A        77.9392   58.1984   36.5470 ac         1 CLA     -0.015100
     26 C1B        78.9523   61.0861   39.7491 cr         1 CLA      0.054700
     27 C1C        75.0636   60.4150   41.6233 cn         1 CLA     -0.005600
     28 C1D        74.0107   57.5334   38.4788 ap         1 CLA     -0.047300
     29 O1A        80.9633   56.9897   32.0731 o2         1 CLA     -0.610800
     30 O1D        78.6139   55.5550   34.0298 o2         1 CLA     -0.558200
     31 C2         82.8825   54.9190   35.2293 c8         1 CLA     -0.325100
     32 C2A        79.2272   58.2548   35.7482 a1         1 CLA      0.098600
     33 C2B        79.5001   61.9621   40.7062 cb         1 CLA      0.088500
     34 C2C        73.9487   60.0767   42.4966 cb         1 CLA      0.053700
     35 C2D        73.6265   56.6012   37.4546 cb         1 CLA      0.058900
     36 O2A        81.7441   56.8563   34.2409 o1         1 CLA     -0.437200
     37 O2D        77.4908   54.2623   35.5364 o1         1 CLA     -0.357600
     38 C3         83.5913   53.7739   35.3887 c5         1 CLA      0.031200
     39 C3A        80.1189   59.1885   36.6513 a1         1 CLA      0.166800
     40 C3B        78.4763   62.1672   41.6557 cb         1 CLA      0.035000
     41 C3C        73.1958   59.1266   41.8593 cb         1 CLA     -0.089900
     42 C3D        74.6913   56.5338   36.6166 cb         1 CLA     -0.035900
     43 C4         82.9880   52.3880   35.4718 a3         1 CLA     -0.053300
     44 C4A        79.1827   59.6223   37.7372 ac         1 CLA      0.001800
     45 C4B        77.3864   61.4024   41.2037 cn         1 CLA     -0.020900
     46 C4C        73.7967   58.8757   40.5820 cr         1 CLA     -0.044400
     47 C4D        75.6703   57.4270   37.0341 c6         1 CLA     -0.046000
     48 C5         85.1149   53.6801   35.2443 a2         1 CLA     -0.070400
     49 C6         85.9784   54.8594   35.7565 a2         1 CLA      0.043900
     50 C7         86.0486   55.0599   37.1973 a2         1 CLA     -0.150000
     51 C8         86.3622   56.5326   37.7628 a1         1 CLA      0.064200
     52 C9         87.4420   57.2822   36.9921 a3         1 CLA     -0.259300
     53 C10        86.6686   56.4775   39.2682 a2         1 CLA     -0.071900
     54 C11        86.5198   57.7554   40.1466 a2         1 CLA      0.014500
     55 C12        86.7246   57.4984   41.6787 a2         1 CLA     -0.112100
     56 C13        86.4449   58.7342   42.4937 a1         1 CLA      0.089200
     57 C14        87.6912   59.7283   42.4076 a3         1 CLA     -0.239100
     58 C15        86.1666   58.4487   43.9932 a2         1 CLA     -0.102200
     59 C16        85.8586   59.5480   44.9054 a2         1 CLA      0.023900
     60 C17        85.2708   59.0860   46.2173 a2         1 CLA     -0.105700
     61 C18        84.9176   60.1775   47.2820 a1         1 CLA      0.206800
     62 C19        83.8587   61.1598   46.7006 a3         1 CLA     -0.280100
     63 C20        84.3039   59.5334   48.6371 a3         1 CLA     -0.280100
     64 NC         74.9692   59.6650   40.4760 nx         1 CLA     -0.309200
     65 MG         76.3765   59.5548   39.0455 mg         1 CLA      0.895000
     66 HMD3       72.0937   55.0373   36.8918 dc         1 CLA      0.064300
     67 HMD2       71.9104   55.7678   38.3561 dc         1 CLA      0.064300
     68 HMD1       71.3440   56.6126   36.8932 dc         1 CLA      0.064300
     69 HMC3       73.8856   59.7145   44.5603 dc         1 CLA      0.052100
     70 HMC2       74.4056   61.3083   44.2143 dc         1 CLA      0.052100
     71 HMC1       72.7178   60.8387   44.0573 dc         1 CLA      0.052100
     72 HMB3       81.1641   62.9879   39.7715 dc         1 CLA      0.063600
     73 HMB2       81.0997   63.0451   41.5624 dc         1 CLA      0.063600
     74 HMB1       81.4491   61.5073   40.6652 dc         1 CLA      0.063600
     75 HMA3       81.7448   58.8557   37.9793 dc         1 CLA      0.058300
     76 HMA2       81.0431   57.3722   37.4641 dc         1 CLA      0.058300
     77 HMA1       82.1232   58.3592   36.3508 dc         1 CLA      0.058300
     78 HED3       78.2712   52.2750   35.6889 dc         1 CLA      0.079300
     79 HED2       79.0795   53.3891   34.6434 dc         1 CLA      0.079300
     80 HED1       79.3603   53.5464   36.3398 dc         1 CLA      0.079300
     81 HBC3       71.3833   56.8173   43.9064 dc         1 CLA      0.016300
     82 HBC2       71.9805   56.3063   42.3123 dc         1 CLA      0.016300
     83 HBC1       73.1121   57.0954   43.3713 dc         1 CLA      0.016300
     84 HBB2       79.5025   63.4733   44.7159 da         1 CLA      0.183000
     85 HBB1       80.4271   62.2202   43.6790 da         1 CLA      0.183000
     86 HBA2       80.5054   59.4240   32.6391 dc         1 CLA      0.029400
     87 HBA1       81.2705   59.3791   34.2209 dc         1 CLA      0.029400
     88 HAC2       71.5176   59.1465   43.1592 dc         1 CLA      0.029300
     89 HAC1       71.1455   58.4987   41.6137 dc         1 CLA      0.029300
     90 HAA2       78.5082   58.2237   33.6449 dc         1 CLA      0.028700
     91 HAA1       78.8085   59.8528   34.2782 dc         1 CLA      0.028700
     92 H203       84.8242   58.6083   48.9368 dc         1 CLA      0.065600
     93 H202       84.2523   60.2470   49.3745 dc         1 CLA      0.065600
     94 H201       83.3157   59.1763   48.4057 dc         1 CLA      0.065600
     95 H193       83.4926   61.7966   47.5057 dc         1 CLA      0.065600
     96 H192       84.2468   61.8000   45.8812 dc         1 CLA      0.065600
     97 H191       82.9775   60.5730   46.3259 dc         1 CLA      0.065600
     98 H172       84.3610   58.5250   46.0609 dc         1 CLA      0.027600
     99 H171       86.0718   58.5295   46.7536 dc         1 CLA      0.027600
    100 H162       86.8222   59.9868   45.1789 dc         1 CLA      0.002900
    101 H161       85.2523   60.2941   44.4232 dc         1 CLA      0.002900
    102 H152       85.4679   57.6380   44.1247 dc         1 CLA      0.029100
    103 H151       87.1027   58.0412   44.4388 dc         1 CLA      0.029100
    104 H143       88.5880   59.2312   42.6414 dc         1 CLA      0.063600
    105 H142       87.7436   60.2749   41.4695 dc         1 CLA      0.063600
    106 H141       87.5638   60.5637   43.1382 dc         1 CLA      0.063600
    107 H122       85.9685   56.7605   41.9447 dc         1 CLA      0.032500
    108 H121       87.6962   57.0973   41.8428 dc         1 CLA      0.032500
    109 H112       87.2386   58.5415   39.7773 dc         1 CLA      0.006600
    110 H111       85.4748   58.1268   40.0114 dc         1 CLA      0.006600
    111 H102       86.0740   55.6918   39.6675 dc         1 CLA      0.024100
    112 H101       87.7133   56.0870   39.4333 dc         1 CLA      0.024100
    113 HHD        72.4080   57.4159   39.8970 da         1 CLA      0.174300
    114 HHC        76.1164   61.8442   42.8302 da         1 CLA      0.136800
    115 HHB        80.6601   60.8914   38.6810 da         1 CLA      0.138300
    116 HBD        76.5143   57.0025   34.0891 dc         1 CLA      0.107700
    117 HAB        77.6275   63.5360   43.1241 da         1 CLA      0.155200
    118 H93        87.8893   58.1330   37.5912 dc         1 CLA      0.069500
    119 H92        88.2726   56.6335   36.7545 dc         1 CLA      0.069500
    120 H91        86.9905   57.7581   36.0667 dc         1 CLA      0.069500
    121 H8         85.4925   57.1343   37.8009 dc         1 CLA      0.029300
    122 H72        85.0443   54.6782   37.5481 dc         1 CLA      0.044400
    123 H71        86.7731   54.4212   37.7533 dc         1 CLA      0.044400
    124 H62        86.9785   54.8348   35.3339 dc         1 CLA      0.015600
    125 H61        85.5288   55.7602   35.4023 dc         1 CLA      0.015600
    126 H52        85.4268   52.7714   35.7781 dc         1 CLA      0.033200
    127 H51        85.3149   53.5383   34.1883 dc         1 CLA      0.033200
    128 H43        81.9997   52.3893   35.0004 dc         1 CLA      0.037000
    129 H42        83.5351   51.7198   34.8731 dc         1 CLA      0.037000
    130 H41        82.7323   52.0407   36.4687 dc         1 CLA      0.037000
    131 H3A        80.5446   59.9821   36.1543 dc         1 CLA      0.041100
    132 H2A        79.5244   57.2221   35.8399 dc         1 CLA      0.083100
    133 H2         82.5967   55.4086   36.1757 da         1 CLA      0.180900
    134 H18        85.8008   60.8162   47.4667 dc         1 CLA     -0.003900
    135 H13        85.5507   59.1479   42.0687 dc         1 CLA      0.019700
    136 H12        81.5671   54.8572   33.4528 dc         1 CLA      0.120400
    137 H11        83.1347   55.5951   33.2971 dc         1 CLA      0.120400
    138 C1         68.5495   61.9637   49.6885 Z1         2 LUT      0.509236
    139 C2         67.2176   61.7359   50.3621 Z2         2 LUT     -0.434695
    140 C3         66.4121   63.0468   50.5429 Z3         2 LUT      0.437453
    141 O3         66.6258   63.6204   51.8258 S1         2 LUT     -0.547129
    142 C4         66.5948   64.1761   49.4334 Z4         2 LUT     -0.468603
    143 C5         67.5111   63.8192   48.3459 Z5         2 LUT      0.279246
    144 C6         68.4578   62.7937   48.3426 Z6         2 LUT     -0.305473
    145 C7         68.9830   62.2288   47.1531 Z7         2 LUT      0.069402
    146 C8         69.8917   62.9557   46.4158 Z8         2 LUT     -0.191631
    147 C9         70.5330   62.6355   45.1006 Z9         2 LUT      0.196698
    148 C10        71.5066   63.4398   44.5958 Y1         2 LUT     -0.208611
    149 C11        72.1466   63.3966   43.2822 Y2         2 LUT      0.030784
    150 C12        73.2967   63.9983   42.8492 Y3         2 LUT     -0.220316
    151 C13        74.0708   63.8428   41.6817 Y4         2 LUT      0.215937
    152 C14        75.2823   64.5022   41.6375 Y5         2 LUT     -0.185793
    153 C15        76.2651   64.3733   40.5979 Y6         2 LUT     -0.057835
    154 C16        69.1601   60.4978   49.5162 Y7         2 LUT     -0.405615
    155 C17        69.4505   62.7694   50.6589 Y7         2 LUT     -0.405615
    156 C18        67.3525   64.6726   47.1074 Y9         2 LUT     -0.369639
    157 C19        69.8133   61.3794   44.4905 W1         2 LUT     -0.333362
    158 C20        73.4355   63.0842   40.5414 W2         2 LUT     -0.323439
    159 C21        87.9247   65.8477   34.4581 Z1         2 LUT      0.406104
    160 C22        88.5542   65.3719   33.1911 Z2         2 LUT     -0.404965
    161 C23        88.3461   66.2659   31.9058 Z3         2 LUT      0.391255
    162 O23        88.7021   65.3781   30.9178 S1         2 LUT     -0.528210
    163 C24        86.8860   66.8725   31.8575 W6         2 LUT     -0.258361
    164 C25        86.0118   66.9259   32.8532 Z5         2 LUT      0.133546
    165 C26        86.3778   66.1822   34.1460 W8         2 LUT     -0.147008
    166 C27        85.7028   66.8477   35.3775 Z7         2 LUT      0.023843
    167 C28        84.6357   66.3144   36.0006 Z8         2 LUT     -0.216987
    168 C29        83.7933   66.8407   36.9839 Z9         2 LUT      0.206524
    169 C30        82.7677   65.9801   37.4105 Y1         2 LUT     -0.215556
    170 C31        81.8881   66.1747   38.4871 Y2         2 LUT      0.025142
    171 C32        80.7882   65.4134   38.7938 Y3         2 LUT     -0.212209
    172 C33        79.7566   65.7555   39.8051 Y4         2 LUT      0.240937
    173 C34        78.4846   65.0842   39.7675 Y5         2 LUT     -0.218862
    174 C35        77.4260   65.1176   40.6371 Y6         2 LUT     -0.023547
    175 C36        88.7784   67.0334   35.1055 Y7         2 LUT     -0.393485
    176 C37        88.1125   64.6616   35.3219 Y7         2 LUT     -0.393485
    177 C38        84.5864   67.4826   32.6940 Y9         2 LUT     -0.387526
    178 C39        84.2338   68.0361   37.8147 W1         2 LUT     -0.322618
    179 C40        80.0790   66.9244   40.6924 W2         2 LUT     -0.358472
    180 H403       79.8549   67.9032   40.2822 R7         2 LUT      0.097720
    181 H402       79.5109   66.7081   41.6707 R7         2 LUT      0.097720
    182 H401       81.1573   66.9555   40.8808 R7         2 LUT      0.097720
    183 H393       83.3617   68.6033   38.2238 R4         2 LUT      0.082505
    184 H392       84.8195   67.7439   38.7162 R4         2 LUT      0.082505
    185 H391       84.6763   68.7152   37.0845 R4         2 LUT      0.082505
    186 H383       84.0053   67.5003   33.6456 R1         2 LUT      0.104030
    187 H382       84.6120   68.4953   32.3137 R1         2 LUT      0.104030
    188 H381       84.0569   66.8486   31.9426 R1         2 LUT      0.104030
    189 H373       87.5196   63.7574   34.8826 T4         2 LUT      0.089537
    190 H372       89.1217   64.3509   35.3705 T4         2 LUT      0.089537
    191 H371       87.7471   64.9599   36.3250 T4         2 LUT      0.089537
    192 H363       89.1507   67.7466   34.3287 T4         2 LUT      0.089537
    193 H362       88.3081   67.5600   35.9177 T4         2 LUT      0.089537
    194 H361       89.6602   66.5952   35.6240 T4         2 LUT      0.089537
    195 H222       89.6531   65.1918   33.2328 U2         2 LUT      0.127376
    196 H221       88.1574   64.4035   32.8828 U2         2 LUT      0.127376
    197 H203       72.9749   62.1127   40.7743 R7         2 LUT      0.087068
    198 H202       72.6687   63.6974   40.0752 R7         2 LUT      0.087068
    199 H201       74.1751   62.9891   39.7319 R7         2 LUT      0.087068
    200 H193       68.7411   61.2779   44.6717 R4         2 LUT      0.089716
    201 H192       69.9751   61.4690   43.4267 R4         2 LUT      0.089716
    202 H191       70.3128   60.4696   44.8384 R4         2 LUT      0.089716
    203 H183       66.5369   65.3964   47.1398 R1         2 LUT      0.094572
    204 H182       68.3520   65.2174   46.9901 R1         2 LUT      0.094572
    205 H181       67.2717   64.0388   46.2259 R1         2 LUT      0.094572
    206 H173       69.6877   62.3059   51.5919 T4         2 LUT      0.093752
    207 H172       70.4582   63.0357   50.1655 T4         2 LUT      0.093752
    208 H171       68.9466   63.7546   50.8702 T4         2 LUT      0.093752
    209 H163       68.4444   59.8435   48.9760 T4         2 LUT      0.093752
    210 H162       70.0815   60.6210   48.8750 T4         2 LUT      0.093752
    211 H161       69.4194   59.9908   50.4674 T4         2 LUT      0.093752
    212 HO3        66.2074   63.1555   52.5146 Q1         2 LUT      0.300121
    213 H8         70.1413   63.9784   46.7645 U7         2 LUT      0.080784
    214 H7         68.6786   61.2176   46.8198 U6         2 LUT      0.042190
    215 H42        65.5712   64.4477   49.0469 U5         2 LUT      0.145166
    216 H41        67.0291   65.0773   49.9622 U5         2 LUT      0.145166
    217 H35        77.5422   65.9460   41.3607 T3         2 LUT      0.077919
    218 H34        78.3797   64.3732   38.9590 T2         2 LUT      0.073626
    219 H32        80.5785   64.5881   38.0921 T1         2 LUT      0.092510
    220 H31        82.0095   67.0963   39.0220 U9         2 LUT      0.070048
    221 H30        82.5662   65.0307   36.8511 U8         2 LUT      0.085442
    222 H3         65.4077   62.7874   50.2880 U3         2 LUT     -0.031596
    223 H28        84.3911   65.3196   35.7209 U7         2 LUT      0.084728
    224 H27        85.7389   67.9237   35.5369 U6         2 LUT      0.087291
    225 H26        85.6642   65.3556   33.8330 Q6         2 LUT      0.075325
    226 H24        86.7337   67.4272   30.9027 Q5         2 LUT      0.094482
    227 H23        89.0274   67.1641   31.9853 U3         2 LUT     -0.024869
    228 H22        66.6041   61.2896   49.5751 U2         2 LUT      0.127376
    229 H21        67.2960   61.1842   51.2506 U2         2 LUT      0.127376
    230 H15        76.1520   63.6213   39.8367 T3         2 LUT      0.093200
    231 H14        75.4571   65.2595   42.4178 T2         2 LUT      0.068865
    232 H12        73.6807   64.6358   43.6807 T1         2 LUT      0.095507
    233 H11        71.7579   62.6365   42.6359 U9         2 LUT      0.068930
    234 H10        71.8273   64.3424   45.1409 U8         2 LUT      0.083911
    235 H1         88.8279   65.8907   30.1017 Q1         2 LUT      0.297311
@<TRIPOS>BOND
    1     6     1 1
    2     7     2 1
    3     8     3 1
    4     9     4 1
    5    11     4 1
    6    12     6 1
    7    13     9 1
    8    16     9 1
    9    25     5 1
   10    25    16 1
   11    26    10 1
   12    26    17 1
   13    27    18 1
   14    28    14 1
   15    28    19 1
   16    29    12 1
   17    30    13 1
   18    31    24 1
   19    32     1 1
   20    32    25 1
   21    33    21 1
   22    33    26 1
   23    34    22 1
   24    34    27 1
   25    35    23 1
   26    35    28 1
   27    36    12 1
   28    36    24 1
   29    37    13 1
   30    37    15 1
   31    38    31 1
   32    39    20 1
   33    39    32 1
   34    40     2 1
   35    40    33 1
   36    41     3 1
   37    41    34 1
   38    42     4 1
   39    42    35 1
   40    43    38 1
   41    44     5 1
   42    44    17 1
   43    44    39 1
   44    45    10 1
   45    45    18 1
   46    45    40 1
   47    46    19 1
   48    46    41 1
   49    47    14 1
   50    47    16 1
   51    47    42 1
   52    48    38 1
   53    49    48 1
   54    50    49 1
   55    51    50 1
   56    52    51 1
   57    53    51 1
   58    54    53 1
   59    55    54 1
   60    56    55 1
   61    57    56 1
   62    58    56 1
   63    59    58 1
   64    60    59 1
   65    61    60 1
   66    62    61 1
   67    63    61 1
   68    64    27 1
   69    64    46 1
   70    65     5 1
   71    65    10 1
   72    65    64 1
   73    65    14 1
   74    66    23 1
   75    67    23 1
   76    68    23 1
   77    69    22 1
   78    70    22 1
   79    71    22 1
   80    72    21 1
   81    73    21 1
   82    74    21 1
   83    75    20 1
   84    76    20 1
   85    77    20 1
   86    78    15 1
   87    79    15 1
   88    80    15 1
   89    81     8 1
   90    82     8 1
   91    83     8 1
   92    84     7 1
   93    85     7 1
   94    86     6 1
   95    87     6 1
   96    88     3 1
   97    89     3 1
   98    90     1 1
   99    91     1 1
  100    92    63 1
  101    93    63 1
  102    94    63 1
  103    95    62 1
  104    96    62 1
  105    97    62 1
  106    98    60 1
  107    99    60 1
  108   100    59 1
  109   101    59 1
  110   102    58 1
  111   103    58 1
  112   104    57 1
  113   105    57 1
  114   106    57 1
  115   107    55 1
  116   108    55 1
  117   109    54 1
  118   110    54 1
  119   111    53 1
  120   112    53 1
  121   113    19 1
  122   114    18 1
  123   115    17 1
  124   116     9 1
  125   117     2 1
  126   118    52 1
  127   119    52 1
  128   120    52 1
  129   121    51 1
  130   122    50 1
  131   123    50 1
  132   124    49 1
  133   125    49 1
  134   126    48 1
  135   127    48 1
  136   128    43 1
  137   129    43 1
  138   130    43 1
  139   131    39 1
  140   132    32 1
  141   133    31 1
  142   134    61 1
  143   135    56 1
  144   136    24 1
  145   137    24 1
  146   139   138 1
  147   140   139 1
  148   141   140 1
  149   142   140 1
  150   143   142 1
  151   144   138 1
  152   144   143 1
  153   145   144 1
  154   146   145 1
  155   147   146 1
  156   148   147 1
  157   149   148 1
  158   150   149 1
  159   151   150 1
  160   152   151 1
  161   153   152 1
  162   154   138 1
  163   155   138 1
  164   156   143 1
  165   157   147 1
  166   158   151 1
  167   160   159 1
  168   161   160 1
  169   162   161 1
  170   163   161 1
  171   164   163 1
  172   165   159 1
  173   165   164 1
  174   166   165 1
  175   167   166 1
  176   168   167 1
  177   169   168 1
  178   170   169 1
  179   171   170 1
  180   172   171 1
  181   173   172 1
  182   174   153 1
  183   174   173 1
  184   175   159 1
  185   176   159 1
  186   177   164 1
  187   178   168 1
  188   179   172 1
  189   180   179 1
  190   181   179 1
  191   182   179 1
  192   183   178 1
  193   184   178 1
  194   185   178 1
  195   186   177 1
  196   187   177 1
  197   188   177 1
  198   189   176 1
  199   190   176 1
  200   191   176 1
  201   192   175 1
  202   193   175 1
  203   194   175 1
  204   195   160 1
  205   196   160 1
  206   197   158 1
  207   198   158 1
  208   199   158 1
  209   200   157 1
  210   201   157 1
  211   202   157 1
  212   203   156 1
  213   204   156 1
  214   205   156 1
  215   206   155 1
  216   207   155 1
  217   208   155 1
  218   209   154 1
  219   210   154 1
  220   211   154 1
  221   212   141 1
  222   213   146 1
  223   214   145 1
  224   215   142 1
  225   216   142 1
  226   217   174 1
  227   218   173 1
  228   219   171 1
  229   220   170 1
  230   221   169 1
  231   222   140 1
  232   223   167 1
  233   224   166 1
  234   225   165 1
  235   226   163 1
  236   227   161 1
  237   228   139 1
  238   229   139 1
  239   230   153 1
  240   231   152 1
  241   232   150 1
  242   233   149 1
  243   234   148 1
  244   235   162 1
  245   65    153 1
  246   65    174 1
@<TRIPOS>SUBSTRUCTURE
      1 CLA               1 ****               0 ****  **** 
      2 LUT             138 ****               0 ****  **** 
