@<TRIPOS>MOLECULE
Cpptraj generated mol2 file.
  235   246     2     0     0
SMALL
USER_CHARGES


@<TRIPOS>ATOM
      1 CAA        78.5791   58.7775   34.1774 a2         1 CLA     -0.055900
      2 CAB        79.1769   62.3382   43.2231 c8         1 CLA     -0.148500
      3 CAC        72.2982   58.2467   43.1193 a2         1 CLA     -0.012600
      4 CAD        74.2979   56.2132   35.6016 ck         1 CLA      0.398800
      5 NA         77.6427   59.1891   37.6356 ns         1 CLA     -0.225500
      6 CBA        79.7305   58.4041   33.2575 a2         1 CLA     -0.135000
      7 CBB        80.1078   61.8352   44.0856 c0         1 CLA     -0.395200
      8 CBC        72.5544   56.7397   43.2152 a3         1 CLA     -0.037700
      9 CBD        75.7566   56.8214   35.2063 a1         1 CLA     -0.053900
     10 NB         77.7084   60.6914   40.1708 nm         1 CLA     -0.295700
     11 OBD        73.5708   55.3875   34.9565 o2         1 CLA     -0.494600
     12 CGA        80.0250   56.9451   32.9380 c4         1 CLA      0.827000
     13 CGD        76.6339   55.6900   34.8388 c4         1 CLA      0.655300
     14 ND         74.8601   58.3932   38.4017 nm         1 CLA     -0.291600
     15 CED        77.1441   53.3864   35.3430 a3         1 CLA      0.005400
     16 CHA        76.1546   57.6897   36.4243 cs         1 CLA     -0.123800
     17 CHB        79.6028   60.3672   38.6301 aa         1 CLA     -0.291900
     18 CHC        76.6618   60.7452   42.4387 aa         1 CLA     -0.090400
     19 CHD        73.2237   58.2027   40.2047 aa         1 CLA     -0.052000
     20 CMA        81.0423   58.3941   36.6873 a3         1 CLA     -0.230700
     21 CMB        81.1989   62.0525   40.7224 a3         1 CLA     -0.180800
     22 CMC        74.6269   60.0566   44.7339 a3         1 CLA     -0.134000
     23 CMD        71.6560   56.4182   37.9427 a3         1 CLA     -0.141100
     24 C1         80.6387   54.9638   34.0693 a2         1 CLA      0.023000
     25 C1A        77.3807   58.3602   36.5753 ac         1 CLA     -0.015100
     26 C1B        79.0119   60.8607   39.7880 cr         1 CLA      0.054700
     27 C1C        75.5305   59.9715   42.2221 cn         1 CLA     -0.005600
     28 C1D        73.6801   57.9386   38.8699 ap         1 CLA     -0.047300
     29 O1A        79.5790   56.3308   31.9872 o2         1 CLA     -0.610800
     30 O1D        77.3498   55.6607   33.8304 o2         1 CLA     -0.558200
     31 C2         81.0720   54.5984   35.5408 c8         1 CLA     -0.325100
     32 C2A        78.6744   58.2861   35.6791 a1         1 CLA      0.098600
     33 C2B        79.7369   61.6120   40.8176 cb         1 CLA      0.088500
     34 C2C        74.5557   59.6626   43.2949 cb         1 CLA      0.053700
     35 C2D        73.0479   57.0629   37.8521 cb         1 CLA      0.058900
     36 O2A        80.6227   56.4168   34.0086 o1         1 CLA     -0.437200
     37 O2D        76.4136   54.6553   35.6696 o1         1 CLA     -0.357600
     38 C3         81.7068   53.4903   35.8190 c5         1 CLA      0.031200
     39 C3A        79.7579   59.1188   36.3913 a1         1 CLA      0.166800
     40 C3B        78.9522   61.6484   41.9167 cb         1 CLA      0.035000
     41 C3C        73.5018   59.0212   42.6391 cb         1 CLA     -0.089900
     42 C3D        73.9938   56.9329   36.8536 cb         1 CLA     -0.035900
     43 C4         81.0087   52.2861   36.3365 a3         1 CLA     -0.053300
     44 C4A        78.9581   59.5948   37.6143 ac         1 CLA      0.001800
     45 C4B        77.7246   61.0081   41.5409 cn         1 CLA     -0.020900
     46 C4C        73.9152   58.8800   41.2449 cr         1 CLA     -0.044400
     47 C4D        75.0592   57.7581   37.2716 c6         1 CLA     -0.046000
     48 C5         83.2099   53.2905   35.6483 a2         1 CLA     -0.070400
     49 C6         84.2309   54.4437   36.0542 a2         1 CLA      0.043900
     50 C7         84.1719   54.7514   37.5651 a2         1 CLA     -0.150000
     51 C8         84.7198   56.0609   38.0757 a1         1 CLA      0.064200
     52 C9         86.1742   56.1373   37.6619 a3         1 CLA     -0.259300
     53 C10        84.5915   56.0431   39.6673 a2         1 CLA     -0.071900
     54 C11        83.1404   56.2058   40.2256 a2         1 CLA      0.014500
     55 C12        83.1333   56.4560   41.7217 a2         1 CLA     -0.112100
     56 C13        81.8905   57.1545   42.4212 a1         1 CLA      0.089200
     57 C14        81.5353   58.5689   41.8705 a3         1 CLA     -0.239100
     58 C15        81.8927   57.0664   43.9963 a2         1 CLA     -0.102200
     59 C16        83.1160   57.5702   44.7213 a2         1 CLA      0.023900
     60 C17        83.2206   57.2594   46.2739 a2         1 CLA     -0.105700
     61 C18        84.1648   58.2427   46.9852 a1         1 CLA      0.206800
     62 C19        84.2346   57.9410   48.4850 a3         1 CLA     -0.280100
     63 C20        85.6193   58.3445   46.4030 a3         1 CLA     -0.280100
     64 NC         75.1055   59.6206   40.9998 nx         1 CLA     -0.309200
     65 MG         76.2952   59.5729   39.2287 mg         1 CLA      0.895000
     66 HMD3       71.7895   55.4795   37.3283 dc         1 CLA      0.064300
     67 HMD2       71.4796   56.3075   38.9862 dc         1 CLA      0.064300
     68 HMD1       70.9122   57.1730   37.5815 dc         1 CLA      0.064300
     69 HMC3       73.6822   60.5079   45.0042 dc         1 CLA      0.052100
     70 HMC2       74.6639   59.1201   45.3531 dc         1 CLA      0.052100
     71 HMC1       75.4969   60.7469   44.8339 dc         1 CLA      0.052100
     72 HMB3       81.7420   61.1926   41.1092 dc         1 CLA      0.063600
     73 HMB2       81.4132   62.4156   39.7510 dc         1 CLA      0.063600
     74 HMB1       81.3824   62.8197   41.4113 dc         1 CLA      0.063600
     75 HMA3       81.4515   58.0411   35.7055 dc         1 CLA      0.058300
     76 HMA2       81.7565   58.9762   37.3174 dc         1 CLA      0.058300
     77 HMA1       80.9351   57.4450   37.2530 dc         1 CLA      0.058300
     78 HED3       77.0443   53.0451   34.3693 dc         1 CLA      0.079300
     79 HED2       78.1709   53.5148   35.7454 dc         1 CLA      0.079300
     80 HED1       76.7125   52.5161   35.9332 dc         1 CLA      0.079300
     81 HBC3       71.6797   56.3302   43.5871 dc         1 CLA      0.016300
     82 HBC2       72.8009   56.2637   42.3049 dc         1 CLA      0.016300
     83 HBC1       73.3440   56.6346   43.9592 dc         1 CLA      0.016300
     84 HBB2       80.2196   62.2972   45.0481 da         1 CLA      0.183000
     85 HBB1       80.7914   61.0364   43.8144 da         1 CLA      0.183000
     86 HBA2       79.4294   58.8308   32.3284 dc         1 CLA      0.029400
     87 HBA1       80.7525   58.8316   33.4994 dc         1 CLA      0.029400
     88 HAC2       72.1346   58.6225   44.0672 dc         1 CLA      0.029300
     89 HAC1       71.3639   58.5069   42.5850 dc         1 CLA      0.029300
     90 HAA2       77.6911   58.2631   33.7547 dc         1 CLA      0.028700
     91 HAA1       78.3910   59.7932   34.3412 dc         1 CLA      0.028700
     92 H203       86.0816   59.1286   46.9805 dc         1 CLA      0.065600
     93 H202       86.0928   57.4111   46.4918 dc         1 CLA      0.065600
     94 H201       85.5944   58.5726   45.3063 dc         1 CLA      0.065600
     95 H193       84.8978   58.6841   48.9418 dc         1 CLA      0.065600
     96 H192       83.2456   58.0932   48.8925 dc         1 CLA      0.065600
     97 H191       84.7220   57.0101   48.6493 dc         1 CLA      0.065600
     98 H172       82.2705   57.4625   46.7389 dc         1 CLA      0.027600
     99 H171       83.4330   56.1943   46.4493 dc         1 CLA      0.027600
    100 H162       83.9926   57.0643   44.3581 dc         1 CLA      0.002900
    101 H161       83.1660   58.6666   44.5897 dc         1 CLA      0.002900
    102 H152       81.0499   57.5956   44.3531 dc         1 CLA      0.029100
    103 H151       81.7656   56.0538   44.2877 dc         1 CLA      0.029100
    104 H143       82.3181   59.1953   42.2739 dc         1 CLA      0.063600
    105 H142       81.3673   58.6481   40.8214 dc         1 CLA      0.063600
    106 H141       80.5268   58.7953   42.2528 dc         1 CLA      0.063600
    107 H122       83.3901   55.6799   42.3636 dc         1 CLA      0.032500
    108 H121       83.9111   57.2125   41.8116 dc         1 CLA      0.032500
    109 H112       82.5598   56.9625   39.7384 dc         1 CLA      0.006600
    110 H111       82.7139   55.2483   40.1143 dc         1 CLA      0.006600
    111 H102       85.1446   55.2501   40.1348 dc         1 CLA      0.024100
    112 H101       84.9803   56.9674   39.9569 dc         1 CLA      0.024100
    113 HHD        72.2530   57.8539   40.5135 da         1 CLA      0.174300
    114 HHC        76.9343   61.1294   43.4167 da         1 CLA      0.136800
    115 HHB        80.6388   60.6227   38.4405 da         1 CLA      0.138300
    116 HBD        75.5635   57.4642   34.3422 dc         1 CLA      0.107700
    117 HAB        78.5361   63.1680   43.6410 da         1 CLA      0.155200
    118 H93        86.6709   56.9912   38.1107 dc         1 CLA      0.069500
    119 H92        86.5812   55.1583   37.8370 dc         1 CLA      0.069500
    120 H91        86.3520   56.3989   36.6363 dc         1 CLA      0.069500
    121 H8         84.0723   56.9302   37.7120 dc         1 CLA      0.029300
    122 H72        83.0870   54.6979   37.8678 dc         1 CLA      0.044400
    123 H71        84.6516   53.9202   38.0853 dc         1 CLA      0.044400
    124 H62        85.2753   54.1816   35.8146 dc         1 CLA      0.015600
    125 H61        84.0626   55.4149   35.5627 dc         1 CLA      0.015600
    126 H52        83.6095   52.3747   36.0645 dc         1 CLA      0.033200
    127 H51        83.2403   53.4082   34.5781 dc         1 CLA      0.033200
    128 H43        81.4153   51.4364   35.7724 dc         1 CLA      0.037000
    129 H42        81.0082   52.0651   37.4195 dc         1 CLA      0.037000
    130 H41        79.9630   52.4646   36.1153 dc         1 CLA      0.037000
    131 H3A        80.0273   59.9893   35.8182 dc         1 CLA      0.041100
    132 H2A        79.0764   57.2554   35.6931 dc         1 CLA      0.083100
    133 H2         81.0652   55.4254   36.2405 da         1 CLA      0.180900
    134 H18        83.7793   59.2333   46.8811 dc         1 CLA     -0.003900
    135 H13        81.0104   56.5676   42.0908 dc         1 CLA      0.019700
    136 H12        79.6526   54.4391   33.9699 dc         1 CLA      0.120400
    137 H11        81.3801   54.6429   33.3399 dc         1 CLA      0.120400
    138 C1         68.2789   61.4974   49.8683 Z1         2 LUT      0.509236
    139 C2         66.8326   61.3689   50.3787 Z2         2 LUT     -0.434695
    140 C3         66.0507   62.6339   50.8275 Z3         2 LUT      0.437453
    141 O3         65.8212   62.6560   52.2625 S1         2 LUT     -0.547129
    142 C4         66.7807   63.8835   50.2116 Z4         2 LUT     -0.468603
    143 C5         67.3429   63.6190   48.7874 Z5         2 LUT      0.279246
    144 C6         68.2913   62.5902   48.7404 Z6         2 LUT     -0.305473
    145 C7         68.6019   62.1388   47.3650 Z7         2 LUT      0.069402
    146 C8         69.8118   62.3363   46.8211 Z8         2 LUT     -0.191631
    147 C9         70.2503   62.0776   45.4472 Z9         2 LUT      0.196698
    148 C10        71.4443   62.5839   45.0449 Y1         2 LUT     -0.208611
    149 C11        72.0956   62.5051   43.7690 Y2         2 LUT      0.030784
    150 C12        73.2816   63.1818   43.5827 Y3         2 LUT     -0.220316
    151 C13        74.1253   63.1428   42.3974 Y4         2 LUT      0.215937
    152 C14        75.2873   63.8660   42.4358 Y5         2 LUT     -0.185793
    153 C15        76.2392   64.0094   41.3200 Y6         2 LUT     -0.057835
    154 C16        68.4759   60.0635   49.3460 Y7         2 LUT     -0.405615
    155 C17        69.1299   61.7591   51.1451 Y7         2 LUT     -0.405615
    156 C18        66.5498   64.3314   47.8023 Y9         2 LUT     -0.369639
    157 C19        69.4223   61.3910   44.3635 W1         2 LUT     -0.333362
    158 C20        73.4437   62.6904   41.1274 W2         2 LUT     -0.323439
    159 C21        87.2699   65.7944   34.9770 Z1         2 LUT      0.406104
    160 C22        88.2489   65.2562   33.8991 Z2         2 LUT     -0.404965
    161 C23        88.6482   66.4328   32.9551 Z3         2 LUT      0.391255
    162 O23        89.4591   65.9921   31.8384 S1         2 LUT     -0.528210
    163 C24        87.4451   67.2563   32.4375 W6         2 LUT     -0.258361
    164 C25        86.1979   67.1833   32.9722 Z5         2 LUT      0.133546
    165 C26        85.9194   66.3187   34.2221 W8         2 LUT     -0.147008
    166 C27        85.0377   66.9876   35.2937 Z7         2 LUT      0.023843
    167 C28        83.9658   66.4643   35.9098 Z8         2 LUT     -0.216987
    168 C29        83.3199   66.7584   37.1834 Z9         2 LUT      0.206524
    169 C30        82.2583   65.9220   37.6565 Y1         2 LUT     -0.215556
    170 C31        81.5928   65.8890   38.9177 Y2         2 LUT      0.025142
    171 C32        80.4051   65.2311   39.1974 Y3         2 LUT     -0.212209
    172 C33        79.6076   65.2814   40.3686 Y4         2 LUT      0.240937
    173 C34        78.3723   64.6801   40.2895 Y5         2 LUT     -0.218862
    174 C35        77.4298   64.7005   41.3876 Y6         2 LUT     -0.023547
    175 C36        87.8920   66.8933   35.8981 Y7         2 LUT     -0.393485
    176 C37        87.0240   64.5196   35.8268 Y7         2 LUT     -0.393485
    177 C38        85.0192   68.0691   32.4396 Y9         2 LUT     -0.387526
    178 C39        83.8763   67.9613   38.0359 W1         2 LUT     -0.322618
    179 C40        80.2054   65.8864   41.6441 W2         2 LUT     -0.358472
    180 H403       81.0264   65.3275   42.1347 R7         2 LUT      0.097720
    181 H402       80.5244   66.9412   41.4169 R7         2 LUT      0.097720
    182 H401       79.4237   65.9052   42.4173 R7         2 LUT      0.097720
    183 H393       84.9268   68.3239   37.7617 R4         2 LUT      0.082505
    184 H392       83.3058   68.9228   37.9541 R4         2 LUT      0.082505
    185 H391       83.9996   67.6984   39.0488 R4         2 LUT      0.082505
    186 H383       84.5640   68.6762   33.2692 R1         2 LUT      0.104030
    187 H382       85.4838   68.6049   31.5702 R1         2 LUT      0.104030
    188 H381       84.1864   67.4996   31.9796 R1         2 LUT      0.104030
    189 H373       86.2531   64.7094   36.5928 T4         2 LUT      0.089537
    190 H372       86.6134   63.6479   35.2951 T4         2 LUT      0.089537
    191 H371       87.9865   64.2497   36.3760 T4         2 LUT      0.089537
    192 H363       87.3092   67.0310   36.8200 T4         2 LUT      0.089537
    193 H362       88.8974   66.7579   36.3723 T4         2 LUT      0.089537
    194 H361       87.8966   67.8289   35.3568 T4         2 LUT      0.089537
    195 H222       89.1813   64.8101   34.1965 U2         2 LUT      0.127376
    196 H221       87.6921   64.6094   33.2298 U2         2 LUT      0.127376
    197 H203       73.2232   61.6654   41.0578 R7         2 LUT      0.087068
    198 H202       72.4318   63.1682   41.0416 R7         2 LUT      0.087068
    199 H201       73.9852   62.9541   40.1984 R7         2 LUT      0.087068
    200 H193       69.1775   62.0408   43.5005 R4         2 LUT      0.089716
    201 H192       70.0246   60.4661   44.0841 R4         2 LUT      0.089716
    202 H191       68.4429   61.0858   44.7229 R4         2 LUT      0.089716
    203 H183       66.7683   63.9203   46.7376 R1         2 LUT      0.094572
    204 H182       65.4605   64.3300   48.0144 R1         2 LUT      0.094572
    205 H181       66.9724   65.3922   47.9227 R1         2 LUT      0.094572
    206 H173       69.0977   62.8127   51.4705 T4         2 LUT      0.093752
    207 H172       68.8787   61.1486   51.9733 T4         2 LUT      0.093752
    208 H171       70.2138   61.4794   50.8725 T4         2 LUT      0.093752
    209 H163       67.8349   59.7045   48.5612 T4         2 LUT      0.093752
    210 H162       69.5140   60.0952   49.0265 T4         2 LUT      0.093752
    211 H161       68.4843   59.2609   50.0879 T4         2 LUT      0.093752
    212 HO3        66.5040   62.9173   52.8384 Q1         2 LUT      0.300121
    213 H8         70.6046   62.7158   47.5365 U7         2 LUT      0.080784
    214 H7         67.6783   61.8142   46.8331 U6         2 LUT      0.042190
    215 H42        66.0884   64.7800   50.2518 U5         2 LUT      0.145166
    216 H41        67.5853   64.3201   50.8379 U5         2 LUT      0.145166
    217 H35        77.4138   65.1969   42.3745 T3         2 LUT      0.077919
    218 H34        78.0907   64.2154   39.3417 T2         2 LUT      0.073626
    219 H32        79.9926   64.8513   38.3095 T1         2 LUT      0.092510
    220 H31        82.0821   66.4824   39.7328 U9         2 LUT      0.070048
    221 H30        82.1207   65.0214   36.9743 U8         2 LUT      0.085442
    222 H3         64.9685   62.5547   50.5007 U3         2 LUT     -0.031596
    223 H28        83.5318   65.5468   35.4791 U7         2 LUT      0.084728
    224 H27        85.4739   67.9005   35.7235 U6         2 LUT      0.087291
    225 H26        85.3387   65.4899   33.9199 Q6         2 LUT      0.075325
    226 H24        87.5446   67.8710   31.5649 Q5         2 LUT      0.094482
    227 H23        89.4285   66.9746   33.5035 U3         2 LUT     -0.024869
    228 H22        66.3011   61.1810   49.4278 U2         2 LUT      0.127376
    229 H21        66.6568   60.6424   51.1672 U2         2 LUT      0.127376
    230 H15        76.0100   63.4119   40.4867 T3         2 LUT      0.093200
    231 H14        75.4807   64.5548   43.2307 T2         2 LUT      0.068865
    232 H12        73.7232   63.8029   44.3665 T1         2 LUT      0.095507
    233 H11        71.6531   61.9302   42.9962 U9         2 LUT      0.068930
    234 H10        71.9975   62.9687   45.8997 U8         2 LUT      0.083911
    235 H1         89.0609   65.7971   30.9663 Q1         2 LUT      0.297311
@<TRIPOS>BOND
    1     6     1 1
    2     7     2 1
    3     8     3 1
    4     9     4 1
    5    11     4 1
    6    12     6 1
    7    13     9 1
    8    16     9 1
    9    25     5 1
   10    25    16 1
   11    26    10 1
   12    26    17 1
   13    27    18 1
   14    28    14 1
   15    28    19 1
   16    29    12 1
   17    30    13 1
   18    31    24 1
   19    32     1 1
   20    32    25 1
   21    33    21 1
   22    33    26 1
   23    34    22 1
   24    34    27 1
   25    35    23 1
   26    35    28 1
   27    36    12 1
   28    36    24 1
   29    37    13 1
   30    37    15 1
   31    38    31 1
   32    39    20 1
   33    39    32 1
   34    40     2 1
   35    40    33 1
   36    41     3 1
   37    41    34 1
   38    42     4 1
   39    42    35 1
   40    43    38 1
   41    44     5 1
   42    44    17 1
   43    44    39 1
   44    45    10 1
   45    45    18 1
   46    45    40 1
   47    46    19 1
   48    46    41 1
   49    47    14 1
   50    47    16 1
   51    47    42 1
   52    48    38 1
   53    49    48 1
   54    50    49 1
   55    51    50 1
   56    52    51 1
   57    53    51 1
   58    54    53 1
   59    55    54 1
   60    56    55 1
   61    57    56 1
   62    58    56 1
   63    59    58 1
   64    60    59 1
   65    61    60 1
   66    62    61 1
   67    63    61 1
   68    64    27 1
   69    64    46 1
   70    65     5 1
   71    65    10 1
   72    65    64 1
   73    65    14 1
   74    66    23 1
   75    67    23 1
   76    68    23 1
   77    69    22 1
   78    70    22 1
   79    71    22 1
   80    72    21 1
   81    73    21 1
   82    74    21 1
   83    75    20 1
   84    76    20 1
   85    77    20 1
   86    78    15 1
   87    79    15 1
   88    80    15 1
   89    81     8 1
   90    82     8 1
   91    83     8 1
   92    84     7 1
   93    85     7 1
   94    86     6 1
   95    87     6 1
   96    88     3 1
   97    89     3 1
   98    90     1 1
   99    91     1 1
  100    92    63 1
  101    93    63 1
  102    94    63 1
  103    95    62 1
  104    96    62 1
  105    97    62 1
  106    98    60 1
  107    99    60 1
  108   100    59 1
  109   101    59 1
  110   102    58 1
  111   103    58 1
  112   104    57 1
  113   105    57 1
  114   106    57 1
  115   107    55 1
  116   108    55 1
  117   109    54 1
  118   110    54 1
  119   111    53 1
  120   112    53 1
  121   113    19 1
  122   114    18 1
  123   115    17 1
  124   116     9 1
  125   117     2 1
  126   118    52 1
  127   119    52 1
  128   120    52 1
  129   121    51 1
  130   122    50 1
  131   123    50 1
  132   124    49 1
  133   125    49 1
  134   126    48 1
  135   127    48 1
  136   128    43 1
  137   129    43 1
  138   130    43 1
  139   131    39 1
  140   132    32 1
  141   133    31 1
  142   134    61 1
  143   135    56 1
  144   136    24 1
  145   137    24 1
  146   139   138 1
  147   140   139 1
  148   141   140 1
  149   142   140 1
  150   143   142 1
  151   144   138 1
  152   144   143 1
  153   145   144 1
  154   146   145 1
  155   147   146 1
  156   148   147 1
  157   149   148 1
  158   150   149 1
  159   151   150 1
  160   152   151 1
  161   153   152 1
  162   154   138 1
  163   155   138 1
  164   156   143 1
  165   157   147 1
  166   158   151 1
  167   160   159 1
  168   161   160 1
  169   162   161 1
  170   163   161 1
  171   164   163 1
  172   165   159 1
  173   165   164 1
  174   166   165 1
  175   167   166 1
  176   168   167 1
  177   169   168 1
  178   170   169 1
  179   171   170 1
  180   172   171 1
  181   173   172 1
  182   174   153 1
  183   174   173 1
  184   175   159 1
  185   176   159 1
  186   177   164 1
  187   178   168 1
  188   179   172 1
  189   180   179 1
  190   181   179 1
  191   182   179 1
  192   183   178 1
  193   184   178 1
  194   185   178 1
  195   186   177 1
  196   187   177 1
  197   188   177 1
  198   189   176 1
  199   190   176 1
  200   191   176 1
  201   192   175 1
  202   193   175 1
  203   194   175 1
  204   195   160 1
  205   196   160 1
  206   197   158 1
  207   198   158 1
  208   199   158 1
  209   200   157 1
  210   201   157 1
  211   202   157 1
  212   203   156 1
  213   204   156 1
  214   205   156 1
  215   206   155 1
  216   207   155 1
  217   208   155 1
  218   209   154 1
  219   210   154 1
  220   211   154 1
  221   212   141 1
  222   213   146 1
  223   214   145 1
  224   215   142 1
  225   216   142 1
  226   217   174 1
  227   218   173 1
  228   219   171 1
  229   220   170 1
  230   221   169 1
  231   222   140 1
  232   223   167 1
  233   224   166 1
  234   225   165 1
  235   226   163 1
  236   227   161 1
  237   228   139 1
  238   229   139 1
  239   230   153 1
  240   231   152 1
  241   232   150 1
  242   233   149 1
  243   234   148 1
  244   235   162 1
  245   65    153 1
  246   65    174 1
@<TRIPOS>SUBSTRUCTURE
      1 CLA               1 ****               0 ****  **** 
      2 LUT             138 ****               0 ****  **** 
