@<TRIPOS>MOLECULE
Cpptraj generated mol2 file.
  235   246     2     0     0
SMALL
USER_CHARGES


@<TRIPOS>ATOM
      1 CAA        80.3231   58.2800   34.3932 a2         1 CLA     -0.055900
      2 CAB        80.5424   62.3746   43.2143 c8         1 CLA     -0.148500
      3 CAC        73.3537   58.5574   43.0366 a2         1 CLA     -0.012600
      4 CAD        75.9289   55.9445   35.7310 ck         1 CLA      0.398800
      5 NA         79.2286   58.8160   37.8406 ns         1 CLA     -0.225500
      6 CBA        81.5175   57.8191   33.5544 a2         1 CLA     -0.135000
      7 CBB        81.7262   62.3771   43.8407 c0         1 CLA     -0.395200
      8 CBC        73.4779   57.0732   43.3458 a3         1 CLA     -0.037700
      9 CBD        77.4220   56.4477   35.4045 a1         1 CLA     -0.053900
     10 NB         79.1003   60.3476   40.3128 nm         1 CLA     -0.295700
     11 OBD        75.2466   55.2590   35.0020 o2         1 CLA     -0.494600
     12 CGA        81.6535   56.3307   33.1795 c4         1 CLA      0.827000
     13 CGD        78.2150   55.1916   35.3513 c4         1 CLA      0.655300
     14 ND         76.4845   57.9163   38.6168 nm         1 CLA     -0.291600
     15 CED        78.8537   53.1936   36.4491 a3         1 CLA      0.005400
     16 CHA        77.8318   57.3297   36.5338 cs         1 CLA     -0.123800
     17 CHB        81.0532   60.0391   38.7777 aa         1 CLA     -0.291900
     18 CHC        77.9015   60.8413   42.4084 aa         1 CLA     -0.090400
     19 CHD        74.5858   58.0036   40.1379 aa         1 CLA     -0.052000
     20 CMA        82.4254   57.6593   37.3187 a3         1 CLA     -0.230700
     21 CMB        82.4343   62.1277   40.6366 a3         1 CLA     -0.180800
     22 CMC        75.5522   60.5554   44.5598 a3         1 CLA     -0.134000
     23 CMD        73.2971   55.9936   37.8216 a3         1 CLA     -0.141100
     24 C1         82.3731   54.1665   33.8662 a2         1 CLA      0.023000
     25 C1A        79.0364   57.9418   36.7792 ac         1 CLA     -0.015100
     26 C1B        80.4686   60.5358   39.9677 cr         1 CLA      0.054700
     27 C1C        76.6681   60.1415   42.1630 cn         1 CLA     -0.005600
     28 C1D        75.1919   57.5644   38.9398 ap         1 CLA     -0.047300
     29 O1A        81.2975   55.8154   32.1327 o2         1 CLA     -0.610800
     30 O1D        78.9076   54.8349   34.4022 o2         1 CLA     -0.558200
     31 C2         83.2903   53.6852   34.9514 c8         1 CLA     -0.325100
     32 C2A        80.3559   57.8011   35.8466 a1         1 CLA      0.098600
     33 C2B        81.0925   61.4354   40.8652 cb         1 CLA      0.088500
     34 C2C        75.5522   60.0186   43.1278 cb         1 CLA      0.053700
     35 C2D        74.6142   56.6865   37.9080 cb         1 CLA      0.058900
     36 O2A        82.3144   55.6183   34.1649 o1         1 CLA     -0.437200
     37 O2D        78.1108   54.4511   36.4997 o1         1 CLA     -0.357600
     38 C3         84.5719   53.3253   34.7829 c5         1 CLA      0.031200
     39 C3A        81.3746   58.6005   36.6977 a1         1 CLA      0.166800
     40 C3B        80.2302   61.6218   41.9140 cb         1 CLA      0.035000
     41 C3C        74.6513   59.0626   42.4693 cb         1 CLA     -0.089900
     42 C3D        75.6452   56.5928   36.9797 cb         1 CLA     -0.035900
     43 C4         84.9982   51.9492   34.5035 a3         1 CLA     -0.053300
     44 C4A        80.4615   59.2662   37.7914 ac         1 CLA      0.001800
     45 C4B        78.9883   60.8581   41.5654 cn         1 CLA     -0.020900
     46 C4C        75.2255   58.8061   41.1533 cr         1 CLA     -0.044400
     47 C4D        76.7519   57.3600   37.3870 c6         1 CLA     -0.046000
     48 C5         85.6184   54.3146   34.9589 a2         1 CLA     -0.070400
     49 C6         85.7102   55.0216   36.3664 a2         1 CLA      0.043900
     50 C7         87.0695   55.7308   36.4028 a2         1 CLA     -0.150000
     51 C8         87.3107   56.4474   37.7307 a1         1 CLA      0.064200
     52 C9         86.4983   57.6755   38.0254 a3         1 CLA     -0.259300
     53 C10        88.8250   56.8057   38.0488 a2         1 CLA     -0.071900
     54 C11        89.1496   57.4717   39.4187 a2         1 CLA      0.014500
     55 C12        89.0561   56.3731   40.5412 a2         1 CLA     -0.112100
     56 C13        89.3463   56.9714   42.0282 a1         1 CLA      0.089200
     57 C14        89.2041   55.8159   43.0333 a3         1 CLA     -0.239100
     58 C15        88.3677   58.1557   42.3253 a2         1 CLA     -0.102200
     59 C16        88.5420   58.6071   43.8674 a2         1 CLA      0.023900
     60 C17        87.4721   59.6768   44.1779 a2         1 CLA     -0.105700
     61 C18        85.9925   59.1455   44.0747 a1         1 CLA      0.206800
     62 C19        85.7434   58.1670   45.1855 a3         1 CLA     -0.280100
     63 C20        84.8987   60.1767   44.1631 a3         1 CLA     -0.280100
     64 NC         76.4386   59.3955   41.0134 nx         1 CLA     -0.309200
     65 MG         77.8028   59.1442   39.4287 mg         1 CLA      0.895000
     66 HMD3       73.1611   55.1213   37.1445 dc         1 CLA      0.064300
     67 HMD2       73.1205   55.4778   38.7793 dc         1 CLA      0.064300
     68 HMD1       72.4370   56.7254   37.6622 dc         1 CLA      0.064300
     69 HMC3       76.1854   60.0007   45.2666 dc         1 CLA      0.052100
     70 HMC2       76.0986   61.5101   44.4894 dc         1 CLA      0.052100
     71 HMC1       74.5505   60.8210   44.9427 dc         1 CLA      0.052100
     72 HMB3       82.4029   63.0746   41.1094 dc         1 CLA      0.063600
     73 HMB2       83.1807   61.4656   40.9861 dc         1 CLA      0.063600
     74 HMB1       82.5559   62.3245   39.6109 dc         1 CLA      0.063600
     75 HMA3       83.0267   57.4080   36.4403 dc         1 CLA      0.058300
     76 HMA2       83.0066   58.2383   38.0572 dc         1 CLA      0.058300
     77 HMA1       81.9835   56.8238   37.8445 dc         1 CLA      0.058300
     78 HED3       78.7466   52.7095   37.4421 dc         1 CLA      0.079300
     79 HED2       78.3733   52.4994   35.7216 dc         1 CLA      0.079300
     80 HED1       79.9399   53.4231   36.1491 dc         1 CLA      0.079300
     81 HBC3       72.8098   56.7972   44.1628 dc         1 CLA      0.016300
     82 HBC2       73.2694   56.4270   42.5374 dc         1 CLA      0.016300
     83 HBC1       74.4166   56.8221   43.8094 dc         1 CLA      0.016300
     84 HBB2       81.8816   62.7292   44.8390 da         1 CLA      0.183000
     85 HBB1       82.5977   61.8913   43.3751 da         1 CLA      0.183000
     86 HBA2       81.4038   58.2896   32.5784 dc         1 CLA      0.029400
     87 HBA1       82.4011   58.0449   33.9923 dc         1 CLA      0.029400
     88 HAC2       73.0245   58.9454   44.0205 dc         1 CLA      0.029300
     89 HAC1       72.5261   58.8130   42.3157 dc         1 CLA      0.029300
     90 HAA2       79.3986   57.9065   33.9822 dc         1 CLA      0.028700
     91 HAA1       80.2247   59.3678   34.4533 dc         1 CLA      0.028700
     92 H203       85.0672   61.0119   43.4831 dc         1 CLA      0.065600
     93 H202       83.9069   59.7684   44.0572 dc         1 CLA      0.065600
     94 H201       84.8860   60.5650   45.2247 dc         1 CLA      0.065600
     95 H193       86.1275   57.2255   44.8537 dc         1 CLA      0.065600
     96 H192       86.2248   58.4813   46.1310 dc         1 CLA      0.065600
     97 H191       84.6254   58.0363   45.3768 dc         1 CLA      0.065600
     98 H172       87.7714   60.0758   45.1742 dc         1 CLA      0.027600
     99 H171       87.4725   60.5558   43.6235 dc         1 CLA      0.027600
    100 H162       88.3517   57.6482   44.4206 dc         1 CLA      0.002900
    101 H161       89.5919   58.9368   44.0410 dc         1 CLA      0.002900
    102 H152       88.5826   58.9776   41.5676 dc         1 CLA      0.029100
    103 H151       87.3171   57.7875   42.2012 dc         1 CLA      0.029100
    104 H143       89.6560   54.9257   42.5692 dc         1 CLA      0.063600
    105 H142       89.7834   56.0251   43.9355 dc         1 CLA      0.063600
    106 H141       88.1372   55.6779   43.1209 dc         1 CLA      0.063600
    107 H122       88.0401   56.0060   40.5350 dc         1 CLA      0.032500
    108 H121       89.7977   55.5955   40.3117 dc         1 CLA      0.032500
    109 H112       90.1773   57.8882   39.5363 dc         1 CLA      0.006600
    110 H111       88.5176   58.3271   39.5924 dc         1 CLA      0.006600
    111 H102       89.4212   55.9706   37.9181 dc         1 CLA      0.024100
    112 H101       89.1230   57.5114   37.3346 dc         1 CLA      0.024100
    113 HHD        73.6082   57.5515   40.2991 da         1 CLA      0.174300
    114 HHC        78.0617   61.2304   43.4489 da         1 CLA      0.136800
    115 HHB        82.1124   60.2632   38.7523 da         1 CLA      0.138300
    116 HBD        77.4398   56.9799   34.4705 dc         1 CLA      0.107700
    117 HAB        79.7382   62.8866   43.7674 da         1 CLA      0.155200
    118 H93        85.4852   57.5180   37.7271 dc         1 CLA      0.069500
    119 H92        86.4814   57.9487   39.0541 dc         1 CLA      0.069500
    120 H91        86.8896   58.5715   37.5216 dc         1 CLA      0.069500
    121 H8         87.0291   55.7313   38.4597 dc         1 CLA      0.029300
    122 H72        87.7866   54.9394   36.2712 dc         1 CLA      0.044400
    123 H71        87.0828   56.6064   35.7029 dc         1 CLA      0.044400
    124 H62        84.7296   55.5685   36.6310 dc         1 CLA      0.015600
    125 H61        85.6390   54.1928   37.0492 dc         1 CLA      0.015600
    126 H52        86.5247   53.8523   34.8055 dc         1 CLA      0.033200
    127 H51        85.4783   55.1525   34.2232 dc         1 CLA      0.033200
    128 H43        84.2811   51.1059   34.5759 dc         1 CLA      0.037000
    129 H42        85.5103   51.8759   33.5138 dc         1 CLA      0.037000
    130 H41        85.7555   51.6913   35.2223 dc         1 CLA      0.037000
    131 H3A        81.8100   59.3679   36.0984 dc         1 CLA      0.041100
    132 H2A        80.5022   56.7544   35.8221 dc         1 CLA      0.083100
    133 H2         82.8209   53.5322   35.9100 da         1 CLA      0.180900
    134 H18        85.7944   58.6967   43.1101 dc         1 CLA     -0.003900
    135 H13        90.3232   57.3402   42.1282 dc         1 CLA      0.019700
    136 H12        81.3244   53.7733   33.8306 dc         1 CLA      0.120400
    137 H11        82.7668   54.0451   32.8454 dc         1 CLA      0.120400
    138 C1         70.3482   61.9348   49.9259 Z1         2 LUT      0.509236
    139 C2         69.0416   61.7157   50.8148 Z2         2 LUT     -0.434695
    140 C3         68.1581   62.9868   51.0733 Z3         2 LUT      0.437453
    141 O3         68.4676   63.4277   52.4314 S1         2 LUT     -0.547129
    142 C4         68.4959   64.1055   50.1375 Z4         2 LUT     -0.468603
    143 C5         69.1009   63.7577   48.7895 Z5         2 LUT      0.279246
    144 C6         69.9951   62.7900   48.6450 Z6         2 LUT     -0.305473
    145 C7         70.5132   62.2397   47.3306 Z7         2 LUT      0.069402
    146 C8         71.4148   62.9731   46.6045 Z8         2 LUT     -0.191631
    147 C9         71.9633   62.6122   45.2696 Z9         2 LUT      0.196698
    148 C10        72.8978   63.4449   44.7439 Y1         2 LUT     -0.208611
    149 C11        73.6657   63.2942   43.4959 Y2         2 LUT      0.030784
    150 C12        74.7751   64.0321   43.1323 Y3         2 LUT     -0.220316
    151 C13        75.6101   63.7533   42.0000 Y4         2 LUT      0.215937
    152 C14        76.7631   64.5035   42.0176 Y5         2 LUT     -0.185793
    153 C15        77.8715   64.4343   41.0927 Y6         2 LUT     -0.057835
    154 C16        70.9745   60.4658   49.6578 Y7         2 LUT     -0.405615
    155 C17        71.3801   62.6286   50.8502 Y7         2 LUT     -0.405615
    156 C18        68.5956   64.5497   47.6570 Y9         2 LUT     -0.369639
    157 C19        71.2755   61.4822   44.5049 W1         2 LUT     -0.333362
    158 C20        75.0499   63.0669   40.7405 W2         2 LUT     -0.323439
    159 C21        88.9560   65.0152   34.4175 Z1         2 LUT      0.406104
    160 C22        89.7677   64.5297   33.1910 Z2         2 LUT     -0.404965
    161 C23        90.2838   65.6050   32.2410 Z3         2 LUT      0.391255
    162 O23        91.1255   64.8708   31.2627 S1         2 LUT     -0.528210
    163 C24        89.1151   66.4467   31.8377 W6         2 LUT     -0.258361
    164 C25        87.9596   66.5431   32.5599 Z5         2 LUT      0.133546
    165 C26        87.6329   65.6086   33.7485 W8         2 LUT     -0.147008
    166 C27        86.7705   66.2984   34.7327 Z7         2 LUT      0.023843
    167 C28        85.7586   65.8113   35.5215 Z8         2 LUT     -0.216987
    168 C29        85.1430   66.3190   36.7774 Z9         2 LUT      0.206524
    169 C30        84.0915   65.6747   37.3453 Y1         2 LUT     -0.215556
    170 C31        83.3560   66.0365   38.5804 Y2         2 LUT      0.025142
    171 C32        82.2667   65.3143   39.0341 Y3         2 LUT     -0.212209
    172 C33        81.2867   65.6340   40.1800 Y4         2 LUT      0.240937
    173 C34        80.1352   64.8682   40.2785 Y5         2 LUT     -0.218862
    174 C35        79.1254   65.0887   41.2333 Y6         2 LUT     -0.023547
    175 C36        89.7181   66.1327   35.2234 Y7         2 LUT     -0.393485
    176 C37        88.7130   63.8078   35.4795 Y7         2 LUT     -0.393485
    177 C38        86.8480   67.5565   32.1780 Y9         2 LUT     -0.387526
    178 C39        85.5292   67.7413   37.1190 W1         2 LUT     -0.322618
    179 C40        81.7482   66.7362   41.0733 W2         2 LUT     -0.358472
    180 H403       82.8400   66.8157   41.2051 R7         2 LUT      0.097720
    181 H402       81.4565   67.5939   40.5742 R7         2 LUT      0.097720
    182 H401       81.3735   66.6355   42.1154 R7         2 LUT      0.097720
    183 H393       85.2194   68.1920   38.0528 R4         2 LUT      0.082505
    184 H392       86.6313   67.7406   37.2468 R4         2 LUT      0.082505
    185 H391       85.1464   68.4576   36.4332 R4         2 LUT      0.082505
    186 H383       86.8581   67.9373   31.1266 R1         2 LUT      0.104030
    187 H382       85.8910   67.0947   32.1660 R1         2 LUT      0.104030
    188 H381       86.8398   68.3927   32.8622 R1         2 LUT      0.104030
    189 H373       89.6542   63.4726   35.9321 T4         2 LUT      0.089537
    190 H372       88.2035   64.1594   36.3555 T4         2 LUT      0.089537
    191 H371       88.1590   62.9490   35.1108 T4         2 LUT      0.089537
    192 H363       89.8344   67.0202   34.5595 T4         2 LUT      0.089537
    193 H362       89.1445   66.3702   36.1276 T4         2 LUT      0.089537
    194 H361       90.6747   65.8556   35.5203 T4         2 LUT      0.089537
    195 H222       90.6768   64.0218   33.5728 U2         2 LUT      0.127376
    196 H221       89.1900   63.8075   32.5874 U2         2 LUT      0.127376
    197 H203       75.8036   62.9842   39.9594 R7         2 LUT      0.087068
    198 H202       75.0307   61.9784   40.9670 R7         2 LUT      0.087068
    199 H201       74.1169   63.4784   40.4413 R7         2 LUT      0.087068
    200 H193       71.7321   61.3366   43.5061 R4         2 LUT      0.089716
    201 H192       71.4941   60.6333   45.1430 R4         2 LUT      0.089716
    202 H191       70.2190   61.7095   44.3700 R4         2 LUT      0.089716
    203 H183       69.2481   65.3864   47.4209 R1         2 LUT      0.094572
    204 H182       68.6072   64.1267   46.6373 R1         2 LUT      0.094572
    205 H181       67.6211   64.9322   47.8010 R1         2 LUT      0.094572
    206 H173       71.3687   63.7198   50.6083 T4         2 LUT      0.093752
    207 H172       71.2190   62.5937   51.9171 T4         2 LUT      0.093752
    208 H171       72.3850   62.2901   50.6153 T4         2 LUT      0.093752
    209 H163       71.8984   60.4370   49.1271 T4         2 LUT      0.093752
    210 H162       71.2602   59.9724   50.6441 T4         2 LUT      0.093752
    211 H161       70.2813   59.7051   49.3055 T4         2 LUT      0.093752
    212 HO3        68.0314   62.8276   53.0308 Q1         2 LUT      0.300121
    213 H8         71.8482   63.7912   47.0203 U7         2 LUT      0.080784
    214 H7         70.2281   61.2572   47.0505 U6         2 LUT      0.042190
    215 H42        67.5945   64.7737   50.0715 U5         2 LUT      0.145166
    216 H41        69.0525   64.8377   50.7060 U5         2 LUT      0.145166
    217 H35        78.9940   65.9445   41.9767 T3         2 LUT      0.077919
    218 H34        80.1202   63.9371   39.6879 T2         2 LUT      0.073626
    219 H32        81.9492   64.5023   38.3548 T1         2 LUT      0.092510
    220 H31        83.6421   66.8653   39.1557 U9         2 LUT      0.070048
    221 H30        83.8398   64.7546   36.8575 U8         2 LUT      0.085442
    222 H3         67.0662   62.7524   51.0412 U3         2 LUT     -0.031596
    223 H28        85.1778   65.0182   35.1651 U7         2 LUT      0.084728
    224 H27        87.1264   67.2977   35.0337 U6         2 LUT      0.087291
    225 H26        87.2292   64.7334   33.2378 Q6         2 LUT      0.075325
    226 H24        89.1595   67.0557   30.9677 Q5         2 LUT      0.094482
    227 H23        90.8805   66.4292   32.6481 U3         2 LUT     -0.024869
    228 H22        68.4281   61.1334   50.1452 U2         2 LUT      0.127376
    229 H21        69.2889   61.1910   51.7681 U2         2 LUT      0.127376
    230 H15        77.7343   63.6429   40.3235 T3         2 LUT      0.093200
    231 H14        76.9138   65.3119   42.8005 T2         2 LUT      0.068865
    232 H12        75.0840   64.8237   43.7842 T1         2 LUT      0.095507
    233 H11        73.5087   62.4467   42.8256 U9         2 LUT      0.068930
    234 H10        73.1554   64.4450   45.1806 U8         2 LUT      0.083911
    235 H1         90.5480   64.5901   30.5036 Q1         2 LUT      0.297311
@<TRIPOS>BOND
    1     6     1 1
    2     7     2 1
    3     8     3 1
    4     9     4 1
    5    11     4 1
    6    12     6 1
    7    13     9 1
    8    16     9 1
    9    25     5 1
   10    25    16 1
   11    26    10 1
   12    26    17 1
   13    27    18 1
   14    28    14 1
   15    28    19 1
   16    29    12 1
   17    30    13 1
   18    31    24 1
   19    32     1 1
   20    32    25 1
   21    33    21 1
   22    33    26 1
   23    34    22 1
   24    34    27 1
   25    35    23 1
   26    35    28 1
   27    36    12 1
   28    36    24 1
   29    37    13 1
   30    37    15 1
   31    38    31 1
   32    39    20 1
   33    39    32 1
   34    40     2 1
   35    40    33 1
   36    41     3 1
   37    41    34 1
   38    42     4 1
   39    42    35 1
   40    43    38 1
   41    44     5 1
   42    44    17 1
   43    44    39 1
   44    45    10 1
   45    45    18 1
   46    45    40 1
   47    46    19 1
   48    46    41 1
   49    47    14 1
   50    47    16 1
   51    47    42 1
   52    48    38 1
   53    49    48 1
   54    50    49 1
   55    51    50 1
   56    52    51 1
   57    53    51 1
   58    54    53 1
   59    55    54 1
   60    56    55 1
   61    57    56 1
   62    58    56 1
   63    59    58 1
   64    60    59 1
   65    61    60 1
   66    62    61 1
   67    63    61 1
   68    64    27 1
   69    64    46 1
   70    65     5 1
   71    65    10 1
   72    65    64 1
   73    65    14 1
   74    66    23 1
   75    67    23 1
   76    68    23 1
   77    69    22 1
   78    70    22 1
   79    71    22 1
   80    72    21 1
   81    73    21 1
   82    74    21 1
   83    75    20 1
   84    76    20 1
   85    77    20 1
   86    78    15 1
   87    79    15 1
   88    80    15 1
   89    81     8 1
   90    82     8 1
   91    83     8 1
   92    84     7 1
   93    85     7 1
   94    86     6 1
   95    87     6 1
   96    88     3 1
   97    89     3 1
   98    90     1 1
   99    91     1 1
  100    92    63 1
  101    93    63 1
  102    94    63 1
  103    95    62 1
  104    96    62 1
  105    97    62 1
  106    98    60 1
  107    99    60 1
  108   100    59 1
  109   101    59 1
  110   102    58 1
  111   103    58 1
  112   104    57 1
  113   105    57 1
  114   106    57 1
  115   107    55 1
  116   108    55 1
  117   109    54 1
  118   110    54 1
  119   111    53 1
  120   112    53 1
  121   113    19 1
  122   114    18 1
  123   115    17 1
  124   116     9 1
  125   117     2 1
  126   118    52 1
  127   119    52 1
  128   120    52 1
  129   121    51 1
  130   122    50 1
  131   123    50 1
  132   124    49 1
  133   125    49 1
  134   126    48 1
  135   127    48 1
  136   128    43 1
  137   129    43 1
  138   130    43 1
  139   131    39 1
  140   132    32 1
  141   133    31 1
  142   134    61 1
  143   135    56 1
  144   136    24 1
  145   137    24 1
  146   139   138 1
  147   140   139 1
  148   141   140 1
  149   142   140 1
  150   143   142 1
  151   144   138 1
  152   144   143 1
  153   145   144 1
  154   146   145 1
  155   147   146 1
  156   148   147 1
  157   149   148 1
  158   150   149 1
  159   151   150 1
  160   152   151 1
  161   153   152 1
  162   154   138 1
  163   155   138 1
  164   156   143 1
  165   157   147 1
  166   158   151 1
  167   160   159 1
  168   161   160 1
  169   162   161 1
  170   163   161 1
  171   164   163 1
  172   165   159 1
  173   165   164 1
  174   166   165 1
  175   167   166 1
  176   168   167 1
  177   169   168 1
  178   170   169 1
  179   171   170 1
  180   172   171 1
  181   173   172 1
  182   174   153 1
  183   174   173 1
  184   175   159 1
  185   176   159 1
  186   177   164 1
  187   178   168 1
  188   179   172 1
  189   180   179 1
  190   181   179 1
  191   182   179 1
  192   183   178 1
  193   184   178 1
  194   185   178 1
  195   186   177 1
  196   187   177 1
  197   188   177 1
  198   189   176 1
  199   190   176 1
  200   191   176 1
  201   192   175 1
  202   193   175 1
  203   194   175 1
  204   195   160 1
  205   196   160 1
  206   197   158 1
  207   198   158 1
  208   199   158 1
  209   200   157 1
  210   201   157 1
  211   202   157 1
  212   203   156 1
  213   204   156 1
  214   205   156 1
  215   206   155 1
  216   207   155 1
  217   208   155 1
  218   209   154 1
  219   210   154 1
  220   211   154 1
  221   212   141 1
  222   213   146 1
  223   214   145 1
  224   215   142 1
  225   216   142 1
  226   217   174 1
  227   218   173 1
  228   219   171 1
  229   220   170 1
  230   221   169 1
  231   222   140 1
  232   223   167 1
  233   224   166 1
  234   225   165 1
  235   226   163 1
  236   227   161 1
  237   228   139 1
  238   229   139 1
  239   230   153 1
  240   231   152 1
  241   232   150 1
  242   233   149 1
  243   234   148 1
  244   235   162 1
  245   65    153 1
  246   65    174 1
@<TRIPOS>SUBSTRUCTURE
      1 CLA               1 ****               0 ****  **** 
      2 LUT             138 ****               0 ****  **** 
