@<TRIPOS>MOLECULE
Cpptraj generated mol2 file.
  235   246     2     0     0
SMALL
USER_CHARGES


@<TRIPOS>ATOM
      1 CAA        77.6589   57.6984   35.1274 a2         1 CLA     -0.055900
      2 CAB        77.5490   61.7682   44.1023 c8         1 CLA     -0.148500
      3 CAC        70.5890   57.5737   43.5043 a2         1 CLA     -0.012600
      4 CAD        73.6485   55.0813   36.3963 ck         1 CLA      0.398800
      5 NA         76.5926   58.4021   38.5490 ns         1 CLA     -0.225500
      6 CBA        79.0017   57.7538   34.3707 a2         1 CLA     -0.135000
      7 CBB        77.2256   61.0196   45.1930 c0         1 CLA     -0.395200
      8 CBC        70.7461   56.0873   43.7705 a3         1 CLA     -0.037700
      9 CBD        75.0677   55.7829   36.1059 a1         1 CLA     -0.053900
     10 NB         76.3038   60.1134   40.9951 nm         1 CLA     -0.295700
     11 OBD        73.1330   54.1769   35.7182 o2         1 CLA     -0.494600
     12 CGA        79.6663   56.4420   34.1710 c4         1 CLA      0.827000
     13 CGD        76.0060   54.5569   36.1528 c4         1 CLA      0.655300
     14 ND         73.6983   57.3964   39.0153 nm         1 CLA     -0.291600
     15 CED        76.9840   52.7935   37.3352 a3         1 CLA      0.005400
     16 CHA        75.3240   56.7764   37.2250 cs         1 CLA     -0.123800
     17 CHB        78.2153   59.9491   39.5094 aa         1 CLA     -0.291900
     18 CHC        74.8014   60.4460   42.9384 aa         1 CLA     -0.090400
     19 CHD        72.0227   57.1041   40.7102 aa         1 CLA     -0.052000
     20 CMA        79.9298   57.9349   37.8972 a3         1 CLA     -0.230700
     21 CMB        79.6242   61.7615   41.6857 a3         1 CLA     -0.180800
     22 CMC        72.3619   59.7313   45.0014 a3         1 CLA     -0.134000
     23 CMD        70.8516   55.0528   38.5501 a3         1 CLA     -0.141100
     24 C1         80.1889   54.4715   35.3596 a2         1 CLA      0.023000
     25 C1A        76.5430   57.4700   37.5021 ac         1 CLA     -0.015100
     26 C1B        77.5843   60.4623   40.6670 cr         1 CLA      0.054700
     27 C1C        73.7535   59.5123   42.6955 cn         1 CLA     -0.005600
     28 C1D        72.5658   56.8316   39.4322 ap         1 CLA     -0.047300
     29 O1A        79.7263   55.8321   33.1071 o2         1 CLA     -0.610800
     30 O1D        76.4866   54.0796   35.1188 o2         1 CLA     -0.558200
     31 C2         80.5583   53.9339   36.7235 c8         1 CLA     -0.325100
     32 C2A        77.8332   57.4342   36.6701 a1         1 CLA      0.098600
     33 C2B        78.1739   61.2723   41.6741 cb         1 CLA      0.088500
     34 C2C        72.6300   59.1752   43.5952 cb         1 CLA      0.053700
     35 C2D        72.1173   55.8620   38.4655 cb         1 CLA      0.058900
     36 O2A        79.9955   55.9091   35.4048 o1         1 CLA     -0.437200
     37 O2D        76.2377   54.0445   37.4260 o1         1 CLA     -0.357600
     38 C3         81.3580   52.8637   36.8552 c5         1 CLA      0.031200
     39 C3A        78.6387   58.5167   37.4447 a1         1 CLA      0.166800
     40 C3B        77.2104   61.3624   42.7115 cb         1 CLA      0.035000
     41 C3C        71.8905   58.2357   42.9204 cb         1 CLA     -0.089900
     42 C3D        73.1418   55.7464   37.5729 cb         1 CLA     -0.035900
     43 C4         80.9373   51.4217   36.8901 a3         1 CLA     -0.053300
     44 C4A        77.7782   58.9967   38.5875 ac         1 CLA      0.001800
     45 C4B        76.0338   60.6705   42.2489 cn         1 CLA     -0.020900
     46 C4C        72.5512   58.0117   41.6539 cr         1 CLA     -0.044400
     47 C4D        74.1056   56.7333   37.9067 c6         1 CLA     -0.046000
     48 C5         82.8593   53.1032   36.7151 a2         1 CLA     -0.070400
     49 C6         83.5605   54.4889   36.7749 a2         1 CLA      0.043900
     50 C7         83.6252   55.0089   38.2378 a2         1 CLA     -0.150000
     51 C8         83.9748   56.4744   38.4283 a1         1 CLA      0.064200
     52 C9         85.3235   56.9881   37.7911 a3         1 CLA     -0.259300
     53 C10        84.0257   56.8047   39.9486 a2         1 CLA     -0.071900
     54 C11        82.7714   56.5511   40.7927 a2         1 CLA      0.014500
     55 C12        82.7190   57.4478   42.0217 a2         1 CLA     -0.112100
     56 C13        83.9475   57.3051   43.0899 a1         1 CLA      0.089200
     57 C14        83.7607   56.0271   44.0187 a3         1 CLA     -0.239100
     58 C15        84.0347   58.5611   43.9407 a2         1 CLA     -0.102200
     59 C16        82.7033   59.1382   44.4665 a2         1 CLA      0.023900
     60 C17        83.1652   60.2824   45.3586 a2         1 CLA     -0.105700
     61 C18        82.0048   61.0372   46.0544 a1         1 CLA      0.206800
     62 C19        82.6314   62.0294   47.0691 a3         1 CLA     -0.280100
     63 C20        81.0125   61.7833   44.9821 a3         1 CLA     -0.280100
     64 NC         73.6607   58.7578   41.5371 nx         1 CLA     -0.309200
     65 MG         74.9327   58.9050   39.8865 mg         1 CLA      0.895000
     66 HMD3       70.6629   54.6903   37.5551 dc         1 CLA      0.064300
     67 HMD2       70.8602   54.2764   39.3200 dc         1 CLA      0.064300
     68 HMD1       70.0512   55.6920   38.7875 dc         1 CLA      0.064300
     69 HMC3       73.3264   59.5283   45.5620 dc         1 CLA      0.052100
     70 HMC2       72.2992   60.8096   44.8575 dc         1 CLA      0.052100
     71 HMC1       71.5766   59.2337   45.5255 dc         1 CLA      0.052100
     72 HMB3       79.7079   62.4797   42.4301 dc         1 CLA      0.063600
     73 HMB2       80.1864   60.8254   41.8557 dc         1 CLA      0.063600
     74 HMB1       79.8306   62.0537   40.6743 dc         1 CLA      0.063600
     75 HMA3       80.5386   57.5591   37.0288 dc         1 CLA      0.058300
     76 HMA2       80.5640   58.4984   38.5266 dc         1 CLA      0.058300
     77 HMA1       79.6699   57.0614   38.3857 dc         1 CLA      0.058300
     78 HED3       76.9803   52.4275   38.3251 dc         1 CLA      0.079300
     79 HED2       76.4594   52.1382   36.5912 dc         1 CLA      0.079300
     80 HED1       78.0267   53.0524   37.1256 dc         1 CLA      0.079300
     81 HBC3       71.7270   55.8567   44.1269 dc         1 CLA      0.016300
     82 HBC2       70.0877   55.7826   44.5641 dc         1 CLA      0.016300
     83 HBC1       70.4317   55.5213   42.8711 dc         1 CLA      0.016300
     84 HBB2       77.5927   61.2907   46.1486 da         1 CLA      0.183000
     85 HBB1       76.7359   60.0501   45.0991 da         1 CLA      0.183000
     86 HBA2       78.8508   58.2100   33.3611 dc         1 CLA      0.029400
     87 HBA1       79.7280   58.4000   34.8282 dc         1 CLA      0.029400
     88 HAC2       70.4351   57.9224   44.4950 dc         1 CLA      0.029300
     89 HAC1       69.6771   57.7818   42.9590 dc         1 CLA      0.029300
     90 HAA2       77.0721   56.9507   34.6128 dc         1 CLA      0.028700
     91 HAA1       77.1209   58.6395   34.9583 dc         1 CLA      0.028700
     92 H203       80.5617   61.1323   44.2153 dc         1 CLA      0.065600
     93 H202       80.2189   62.1897   45.6358 dc         1 CLA      0.065600
     94 H201       81.5339   62.5822   44.4030 dc         1 CLA      0.065600
     95 H193       83.2815   62.6898   46.6027 dc         1 CLA      0.065600
     96 H192       81.7910   62.5768   47.6127 dc         1 CLA      0.065600
     97 H191       83.2573   61.5657   47.8248 dc         1 CLA      0.065600
     98 H172       83.9741   59.9737   46.0345 dc         1 CLA      0.027600
     99 H171       83.5783   60.9398   44.6939 dc         1 CLA      0.027600
    100 H162       82.0942   59.4312   43.6747 dc         1 CLA      0.002900
    101 H161       82.0548   58.5470   45.0691 dc         1 CLA      0.002900
    102 H152       84.7137   58.4085   44.8091 dc         1 CLA      0.029100
    103 H151       84.4768   59.2936   43.2116 dc         1 CLA      0.029100
    104 H143       83.9550   55.2010   43.2948 dc         1 CLA      0.063600
    105 H142       84.5166   56.0468   44.7799 dc         1 CLA      0.063600
    106 H141       82.7625   56.1240   44.4313 dc         1 CLA      0.063600
    107 H122       82.6352   58.4799   41.6445 dc         1 CLA      0.032500
    108 H121       81.8088   57.3537   42.5580 dc         1 CLA      0.032500
    109 H112       81.8754   56.8324   40.2684 dc         1 CLA      0.006600
    110 H111       82.5998   55.4783   41.1487 dc         1 CLA      0.006600
    111 H102       84.8836   56.2750   40.3553 dc         1 CLA      0.024100
    112 H101       84.2768   57.8527   39.9975 dc         1 CLA      0.024100
    113 HHD        71.0450   56.6732   41.0165 da         1 CLA      0.174300
    114 HHC        74.6759   60.8349   43.9171 da         1 CLA      0.136800
    115 HHB        79.2088   60.4052   39.2797 da         1 CLA      0.138300
    116 HBD        75.0281   56.2622   35.1434 dc         1 CLA      0.107700
    117 HAB        78.2333   62.6548   44.2957 da         1 CLA      0.155200
    118 H93        86.1342   56.4629   38.1693 dc         1 CLA      0.069500
    119 H92        85.2405   56.7603   36.7329 dc         1 CLA      0.069500
    120 H91        85.4893   58.0562   37.7576 dc         1 CLA      0.069500
    121 H8         83.1221   56.9254   38.0696 dc         1 CLA      0.029300
    122 H72        82.6842   54.8906   38.7082 dc         1 CLA      0.044400
    123 H71        84.3575   54.4703   38.7879 dc         1 CLA      0.044400
    124 H62        84.5913   54.3230   36.4573 dc         1 CLA      0.015600
    125 H61        83.0356   55.0578   35.9908 dc         1 CLA      0.015600
    126 H52        83.4060   52.4153   37.3389 dc         1 CLA      0.033200
    127 H51        83.0527   52.7153   35.6915 dc         1 CLA      0.033200
    128 H43        79.8937   51.4558   37.2269 dc         1 CLA      0.037000
    129 H42        80.9663   50.9751   35.9331 dc         1 CLA      0.037000
    130 H41        81.6035   50.8565   37.5675 dc         1 CLA      0.037000
    131 H3A        78.7597   59.4471   36.7716 dc         1 CLA      0.041100
    132 H2A        78.2106   56.3939   36.8243 dc         1 CLA      0.083100
    133 H2         80.3060   54.4622   37.6605 da         1 CLA      0.180900
    134 H18        81.3676   60.3534   46.6884 dc         1 CLA     -0.003900
    135 H13        84.8785   57.1969   42.6712 dc         1 CLA      0.019700
    136 H12        79.2510   54.0432   35.0989 dc         1 CLA      0.120400
    137 H11        80.9084   54.1862   34.5826 dc         1 CLA      0.120400
    138 C1         67.6680   61.4131   50.6949 Z1         2 LUT      0.509236
    139 C2         66.3389   61.1255   51.5037 Z2         2 LUT     -0.434695
    140 C3         65.3955   62.3513   51.7262 Z3         2 LUT      0.437453
    141 O3         65.2678   62.7630   53.0456 S1         2 LUT     -0.547129
    142 C4         65.8810   63.4618   50.9084 Z4         2 LUT     -0.468603
    143 C5         66.4915   63.1980   49.5690 Z5         2 LUT      0.279246
    144 C6         67.4513   62.2684   49.4766 Z6         2 LUT     -0.305473
    145 C7         67.7839   61.6315   48.1928 Z7         2 LUT      0.069402
    146 C8         68.5100   62.2318   47.2328 Z8         2 LUT     -0.191631
    147 C9         69.0487   61.7221   45.9174 Z9         2 LUT      0.196698
    148 C10        69.8588   62.6861   45.2774 Y1         2 LUT     -0.208611
    149 C11        70.5263   62.4928   44.0044 Y2         2 LUT      0.030784
    150 C12        71.5020   63.2559   43.5717 Y3         2 LUT     -0.220316
    151 C13        72.2437   63.1175   42.3486 Y4         2 LUT      0.215937
    152 C14        73.4778   63.7548   42.2433 Y5         2 LUT     -0.185793
    153 C15        74.5379   63.6512   41.2716 Y6         2 LUT     -0.057835
    154 C16        68.0995   59.8918   50.4714 Y7         2 LUT     -0.405615
    155 C17        68.6283   62.0334   51.7018 Y7         2 LUT     -0.405615
    156 C18        65.5747   63.6739   48.3960 Y9         2 LUT     -0.369639
    157 C19        68.5695   60.3364   45.4130 W1         2 LUT     -0.333362
    158 C20        71.6141   62.4262   41.1702 W2         2 LUT     -0.323439
    159 C21        85.9946   64.7768   35.3983 Z1         2 LUT      0.406104
    160 C22        87.0189   64.3877   34.3378 Z2         2 LUT     -0.404965
    161 C23        87.2243   65.3614   33.1809 Z3         2 LUT      0.391255
    162 O23        87.9930   64.6476   32.1940 S1         2 LUT     -0.528210
    163 C24        85.9641   66.0718   32.8118 W6         2 LUT     -0.258361
    164 C25        84.8322   66.0442   33.4864 Z5         2 LUT      0.133546
    165 C26        84.5759   65.1660   34.7314 W8         2 LUT     -0.147008
    166 C27        83.6596   65.7495   35.7279 Z7         2 LUT      0.023843
    167 C28        82.6741   65.0835   36.4567 Z8         2 LUT     -0.216987
    168 C29        81.9742   65.4723   37.7019 Z9         2 LUT      0.206524
    169 C30        80.9764   64.6463   38.0859 Y1         2 LUT     -0.215556
    170 C31        80.0953   64.7378   39.2133 Y2         2 LUT      0.025142
    171 C32        78.9073   64.1781   39.4285 Y3         2 LUT     -0.212209
    172 C33        78.0589   64.5073   40.5225 Y4         2 LUT      0.240937
    173 C34        76.8378   63.9884   40.5196 Y5         2 LUT     -0.218862
    174 C35        75.7819   64.1465   41.4864 Y6         2 LUT     -0.023547
    175 C36        86.6924   65.7740   36.3849 Y7         2 LUT     -0.393485
    176 C37        85.7592   63.5104   36.1990 Y7         2 LUT     -0.393485
    177 C38        83.6663   66.9399   32.9935 Y9         2 LUT     -0.387526
    178 C39        82.4372   66.7723   38.4026 W1         2 LUT     -0.322618
    179 C40        78.3759   65.7065   41.3850 W2         2 LUT     -0.358472
    180 H403       79.2666   65.4757   41.9946 R7         2 LUT      0.097720
    181 H402       78.4150   66.6381   40.7502 R7         2 LUT      0.097720
    182 H401       77.7039   65.9681   42.1936 R7         2 LUT      0.097720
    183 H393       82.3240   67.6122   37.7073 R4         2 LUT      0.082505
    184 H392       81.8524   66.9768   39.3128 R4         2 LUT      0.082505
    185 H391       83.4526   66.7653   38.6559 R4         2 LUT      0.082505
    186 H383       83.5301   67.6812   33.7988 R1         2 LUT      0.104030
    187 H382       83.8627   67.4762   32.0552 R1         2 LUT      0.104030
    188 H381       82.8320   66.3385   32.8132 R1         2 LUT      0.104030
    189 H373       84.8386   63.5369   36.8722 T4         2 LUT      0.089537
    190 H372       85.6082   62.7004   35.5417 T4         2 LUT      0.089537
    191 H371       86.5879   63.1399   36.8656 T4         2 LUT      0.089537
    192 H363       87.5120   65.2659   36.8443 T4         2 LUT      0.089537
    193 H362       86.9206   66.7365   35.9708 T4         2 LUT      0.089537
    194 H361       86.1100   66.1144   37.2512 T4         2 LUT      0.089537
    195 H222       87.9682   64.3527   34.9149 U2         2 LUT      0.127376
    196 H221       86.7793   63.3961   33.9701 U2         2 LUT      0.127376
    197 H203       70.5585   62.3401   41.2058 R7         2 LUT      0.087068
    198 H202       71.8371   62.9044   40.2103 R7         2 LUT      0.087068
    199 H201       72.0066   61.4209   41.1788 R7         2 LUT      0.087068
    200 H193       67.6153   60.1083   45.8063 R4         2 LUT      0.089716
    201 H192       68.5035   60.1998   44.3224 R4         2 LUT      0.089716
    202 H191       69.2115   59.5888   45.9064 R4         2 LUT      0.089716
    203 H183       65.6216   62.9365   47.6205 R1         2 LUT      0.094572
    204 H182       64.5623   64.0073   48.7114 R1         2 LUT      0.094572
    205 H181       66.0226   64.5194   48.0000 R1         2 LUT      0.094572
    206 H173       68.5197   63.1132   51.5431 T4         2 LUT      0.093752
    207 H172       68.4130   61.7644   52.7681 T4         2 LUT      0.093752
    208 H171       69.6992   61.8744   51.7002 T4         2 LUT      0.093752
    209 H163       68.6216   59.4876   51.3562 T4         2 LUT      0.093752
    210 H162       67.2498   59.3003   50.0550 T4         2 LUT      0.093752
    211 H161       68.7584   59.8686   49.6113 T4         2 LUT      0.093752
    212 HO3        64.9978   62.0062   53.6321 Q1         2 LUT      0.300121
    213 H8         68.8215   63.2196   47.5071 U7         2 LUT      0.080784
    214 H7         67.3414   60.6670   47.9762 U6         2 LUT      0.042190
    215 H42        65.0432   64.1549   50.8666 U5         2 LUT      0.145166
    216 H41        66.5948   63.9703   51.5883 U5         2 LUT      0.145166
    217 H35        76.0119   64.6246   42.3738 T3         2 LUT      0.077919
    218 H34        76.6490   63.3200   39.6813 T2         2 LUT      0.073626
    219 H32        78.7042   63.4675   38.6811 T1         2 LUT      0.092510
    220 H31        80.4410   65.5263   39.8624 U9         2 LUT      0.070048
    221 H30        80.7727   63.7372   37.4740 U8         2 LUT      0.085442
    222 H3         64.4262   61.9589   51.3959 U3         2 LUT     -0.031596
    223 H28        82.5143   64.0311   36.1514 U7         2 LUT      0.084728
    224 H27        83.9761   66.7767   35.9416 U6         2 LUT      0.087291
    225 H26        84.1706   64.2684   34.2432 Q6         2 LUT      0.075325
    226 H24        86.0670   66.6932   31.8836 Q5         2 LUT      0.094482
    227 H23        87.8543   66.1052   33.5906 U3         2 LUT     -0.024869
    228 H22        65.7475   60.4112   50.9248 U2         2 LUT      0.127376
    229 H21        66.5910   60.5318   52.3791 U2         2 LUT      0.127376
    230 H15        74.3696   63.0578   40.4107 T3         2 LUT      0.093200
    231 H14        73.8668   64.4232   43.0304 T2         2 LUT      0.068865
    232 H12        71.8134   64.0948   44.2605 T1         2 LUT      0.095507
    233 H11        70.2678   61.6902   43.3645 U9         2 LUT      0.068930
    234 H10        70.1299   63.6216   45.7631 U8         2 LUT      0.083911
    235 H1         87.5237   63.9851   31.5898 Q1         2 LUT      0.297311
@<TRIPOS>BOND
    1     6     1 1
    2     7     2 1
    3     8     3 1
    4     9     4 1
    5    11     4 1
    6    12     6 1
    7    13     9 1
    8    16     9 1
    9    25     5 1
   10    25    16 1
   11    26    10 1
   12    26    17 1
   13    27    18 1
   14    28    14 1
   15    28    19 1
   16    29    12 1
   17    30    13 1
   18    31    24 1
   19    32     1 1
   20    32    25 1
   21    33    21 1
   22    33    26 1
   23    34    22 1
   24    34    27 1
   25    35    23 1
   26    35    28 1
   27    36    12 1
   28    36    24 1
   29    37    13 1
   30    37    15 1
   31    38    31 1
   32    39    20 1
   33    39    32 1
   34    40     2 1
   35    40    33 1
   36    41     3 1
   37    41    34 1
   38    42     4 1
   39    42    35 1
   40    43    38 1
   41    44     5 1
   42    44    17 1
   43    44    39 1
   44    45    10 1
   45    45    18 1
   46    45    40 1
   47    46    19 1
   48    46    41 1
   49    47    14 1
   50    47    16 1
   51    47    42 1
   52    48    38 1
   53    49    48 1
   54    50    49 1
   55    51    50 1
   56    52    51 1
   57    53    51 1
   58    54    53 1
   59    55    54 1
   60    56    55 1
   61    57    56 1
   62    58    56 1
   63    59    58 1
   64    60    59 1
   65    61    60 1
   66    62    61 1
   67    63    61 1
   68    64    27 1
   69    64    46 1
   70    65     5 1
   71    65    10 1
   72    65    64 1
   73    65    14 1
   74    66    23 1
   75    67    23 1
   76    68    23 1
   77    69    22 1
   78    70    22 1
   79    71    22 1
   80    72    21 1
   81    73    21 1
   82    74    21 1
   83    75    20 1
   84    76    20 1
   85    77    20 1
   86    78    15 1
   87    79    15 1
   88    80    15 1
   89    81     8 1
   90    82     8 1
   91    83     8 1
   92    84     7 1
   93    85     7 1
   94    86     6 1
   95    87     6 1
   96    88     3 1
   97    89     3 1
   98    90     1 1
   99    91     1 1
  100    92    63 1
  101    93    63 1
  102    94    63 1
  103    95    62 1
  104    96    62 1
  105    97    62 1
  106    98    60 1
  107    99    60 1
  108   100    59 1
  109   101    59 1
  110   102    58 1
  111   103    58 1
  112   104    57 1
  113   105    57 1
  114   106    57 1
  115   107    55 1
  116   108    55 1
  117   109    54 1
  118   110    54 1
  119   111    53 1
  120   112    53 1
  121   113    19 1
  122   114    18 1
  123   115    17 1
  124   116     9 1
  125   117     2 1
  126   118    52 1
  127   119    52 1
  128   120    52 1
  129   121    51 1
  130   122    50 1
  131   123    50 1
  132   124    49 1
  133   125    49 1
  134   126    48 1
  135   127    48 1
  136   128    43 1
  137   129    43 1
  138   130    43 1
  139   131    39 1
  140   132    32 1
  141   133    31 1
  142   134    61 1
  143   135    56 1
  144   136    24 1
  145   137    24 1
  146   139   138 1
  147   140   139 1
  148   141   140 1
  149   142   140 1
  150   143   142 1
  151   144   138 1
  152   144   143 1
  153   145   144 1
  154   146   145 1
  155   147   146 1
  156   148   147 1
  157   149   148 1
  158   150   149 1
  159   151   150 1
  160   152   151 1
  161   153   152 1
  162   154   138 1
  163   155   138 1
  164   156   143 1
  165   157   147 1
  166   158   151 1
  167   160   159 1
  168   161   160 1
  169   162   161 1
  170   163   161 1
  171   164   163 1
  172   165   159 1
  173   165   164 1
  174   166   165 1
  175   167   166 1
  176   168   167 1
  177   169   168 1
  178   170   169 1
  179   171   170 1
  180   172   171 1
  181   173   172 1
  182   174   153 1
  183   174   173 1
  184   175   159 1
  185   176   159 1
  186   177   164 1
  187   178   168 1
  188   179   172 1
  189   180   179 1
  190   181   179 1
  191   182   179 1
  192   183   178 1
  193   184   178 1
  194   185   178 1
  195   186   177 1
  196   187   177 1
  197   188   177 1
  198   189   176 1
  199   190   176 1
  200   191   176 1
  201   192   175 1
  202   193   175 1
  203   194   175 1
  204   195   160 1
  205   196   160 1
  206   197   158 1
  207   198   158 1
  208   199   158 1
  209   200   157 1
  210   201   157 1
  211   202   157 1
  212   203   156 1
  213   204   156 1
  214   205   156 1
  215   206   155 1
  216   207   155 1
  217   208   155 1
  218   209   154 1
  219   210   154 1
  220   211   154 1
  221   212   141 1
  222   213   146 1
  223   214   145 1
  224   215   142 1
  225   216   142 1
  226   217   174 1
  227   218   173 1
  228   219   171 1
  229   220   170 1
  230   221   169 1
  231   222   140 1
  232   223   167 1
  233   224   166 1
  234   225   165 1
  235   226   163 1
  236   227   161 1
  237   228   139 1
  238   229   139 1
  239   230   153 1
  240   231   152 1
  241   232   150 1
  242   233   149 1
  243   234   148 1
  244   235   162 1
  245   65    153 1
  246   65    174 1
@<TRIPOS>SUBSTRUCTURE
      1 CLA               1 ****               0 ****  **** 
      2 LUT             138 ****               0 ****  **** 
