@<TRIPOS>MOLECULE
Cpptraj generated mol2 file.
  235   246     2     0     0
SMALL
USER_CHARGES


@<TRIPOS>ATOM
      1 CAA        78.6158   57.2369   34.8460 a2         1 CLA     -0.055900
      2 CAB        79.1565   61.7418   43.4511 c8         1 CLA     -0.148500
      3 CAC        72.1507   57.9734   43.8395 a2         1 CLA     -0.012600
      4 CAD        74.3662   54.9856   36.4782 ck         1 CLA      0.398800
      5 NA         77.8099   57.8578   38.3380 ns         1 CLA     -0.225500
      6 CBA        79.8384   56.9079   33.9349 a2         1 CLA     -0.135000
      7 CBB        80.2798   61.9719   44.1348 c0         1 CLA     -0.395200
      8 CBC        71.9217   56.5086   44.2610 a3         1 CLA     -0.037700
      9 CBD        75.7485   55.5687   35.9753 a1         1 CLA     -0.053900
     10 NB         77.8889   59.4892   40.8468 nm         1 CLA     -0.295700
     11 OBD        73.7365   54.2584   35.7749 o2         1 CLA     -0.494600
     12 CGA        80.1134   55.4427   33.6168 c4         1 CLA      0.827000
     13 CGD        76.6466   54.3927   35.5784 c4         1 CLA      0.655300
     14 ND         75.1027   56.9498   39.3738 nm         1 CLA     -0.291600
     15 CED        77.0550   52.0897   36.0416 a3         1 CLA      0.005400
     16 CHA        76.2779   56.4396   37.1409 cs         1 CLA     -0.123800
     17 CHB        79.5841   59.2125   39.1417 aa         1 CLA     -0.291900
     18 CHC        76.7594   59.8835   42.9763 aa         1 CLA     -0.090400
     19 CHD        73.3320   56.9723   41.0688 aa         1 CLA     -0.052000
     20 CMA        81.1894   56.9696   37.5041 a3         1 CLA     -0.230700
     21 CMB        81.2143   61.2009   41.0477 a3         1 CLA     -0.180800
     22 CMC        74.5422   59.7556   45.0871 a3         1 CLA     -0.134000
     23 CMD        71.8241   55.2409   38.8247 a3         1 CLA     -0.141100
     24 C1         80.7416   53.3591   34.6789 a2         1 CLA      0.023000
     25 C1A        77.5337   57.0648   37.2667 ac         1 CLA     -0.015100
     26 C1B        79.1499   59.7555   40.3851 cr         1 CLA      0.054700
     27 C1C        75.5856   59.1638   42.8115 cn         1 CLA     -0.005600
     28 C1D        73.8058   56.5107   39.8451 ap         1 CLA     -0.047300
     29 O1A        79.9335   54.8791   32.5501 o2         1 CLA     -0.610800
     30 O1D        77.3870   54.3491   34.5890 o2         1 CLA     -0.558200
     31 C2         80.8995   52.7021   36.0228 c8         1 CLA     -0.325100
     32 C2A        78.7779   56.9171   36.3319 a1         1 CLA      0.098600
     33 C2B        79.8612   60.6196   41.2579 cb         1 CLA      0.088500
     34 C2C        74.4537   59.0730   43.7523 cb         1 CLA      0.053700
     35 C2D        73.2349   55.7564   38.7672 cb         1 CLA      0.058900
     36 O2A        80.5992   54.8010   34.7931 o1         1 CLA     -0.437200
     37 O2D        76.4157   53.3315   36.4349 o1         1 CLA     -0.357600
     38 C3         81.8302   51.8075   36.2637 c5         1 CLA      0.031200
     39 C3A        79.8640   57.7284   37.0745 a1         1 CLA      0.166800
     40 C3B        79.0366   60.8568   42.3024 cb         1 CLA      0.035000
     41 C3C        73.4440   58.3458   43.2014 cb         1 CLA     -0.089900
     42 C3D        74.1628   55.6030   37.7399 cb         1 CLA     -0.035900
     43 C4         81.6656   50.2980   36.2306 a3         1 CLA     -0.053300
     44 C4A        79.0574   58.3186   38.2585 ac         1 CLA      0.001800
     45 C4B        77.7889   60.0576   42.0644 cn         1 CLA     -0.020900
     46 C4C        73.9287   57.8656   41.9365 cr         1 CLA     -0.044400
     47 C4D        75.2521   56.3865   38.0843 c6         1 CLA     -0.046000
     48 C5         83.2052   52.2243   36.6162 a2         1 CLA     -0.070400
     49 C6         83.3679   53.5808   37.2015 a2         1 CLA      0.043900
     50 C7         84.8997   53.7423   37.5549 a2         1 CLA     -0.150000
     51 C8         85.4626   55.0387   38.1508 a1         1 CLA      0.064200
     52 C9         87.0537   55.1136   37.9321 a3         1 CLA     -0.259300
     53 C10        85.2335   55.0217   39.7312 a2         1 CLA     -0.071900
     54 C11        83.8399   55.3247   40.1236 a2         1 CLA      0.014500
     55 C12        83.8596   55.9871   41.5355 a2         1 CLA     -0.112100
     56 C13        82.4828   56.2456   42.0595 a1         1 CLA      0.089200
     57 C14        81.7691   57.4178   41.3486 a3         1 CLA     -0.239100
     58 C15        82.2754   56.4424   43.6683 a2         1 CLA     -0.102200
     59 C16        83.0158   57.7036   44.2188 a2         1 CLA      0.023900
     60 C17        82.5914   58.0793   45.6487 a2         1 CLA     -0.105700
     61 C18        83.4582   59.2287   46.2179 a1         1 CLA      0.206800
     62 C19        82.6419   60.3399   46.8854 a3         1 CLA     -0.280100
     63 C20        84.5872   58.8482   47.2217 a3         1 CLA     -0.280100
     64 NC         75.1962   58.4552   41.6948 nx         1 CLA     -0.309200
     65 MG         76.4510   58.2648   39.9884 mg         1 CLA      0.895000
     66 HMD3       71.0308   55.9781   38.5570 dc         1 CLA      0.064300
     67 HMD2       71.8262   54.4496   38.0085 dc         1 CLA      0.064300
     68 HMD1       71.6199   54.7641   39.8202 dc         1 CLA      0.064300
     69 HMC3       75.1182   60.6866   45.0947 dc         1 CLA      0.052100
     70 HMC2       73.5863   60.1980   45.2852 dc         1 CLA      0.052100
     71 HMC1       74.7301   59.0175   45.9066 dc         1 CLA      0.052100
     72 HMB3       81.3610   62.1434   41.5761 dc         1 CLA      0.063600
     73 HMB2       82.0538   60.5171   41.2709 dc         1 CLA      0.063600
     74 HMB1       81.1541   61.5187   40.0281 dc         1 CLA      0.063600
     75 HMA3       81.7750   57.7400   37.9505 dc         1 CLA      0.058300
     76 HMA2       80.8589   56.2359   38.2737 dc         1 CLA      0.058300
     77 HMA1       81.6743   56.5269   36.6584 dc         1 CLA      0.058300
     78 HED3       76.7174   51.9064   35.0280 dc         1 CLA      0.079300
     79 HED2       78.1575   52.1665   36.0622 dc         1 CLA      0.079300
     80 HED1       76.7239   51.2624   36.7450 dc         1 CLA      0.079300
     81 HBC3       72.5689   56.3181   45.1512 dc         1 CLA      0.016300
     82 HBC2       70.8075   56.3276   44.4575 dc         1 CLA      0.016300
     83 HBC1       72.1331   55.8532   43.4534 dc         1 CLA      0.016300
     84 HBB2       80.2162   62.6709   44.9816 da         1 CLA      0.183000
     85 HBB1       81.2708   61.5394   43.8855 da         1 CLA      0.183000
     86 HBA2       79.5600   57.3820   33.0080 dc         1 CLA      0.029400
     87 HBA1       80.7308   57.3429   34.3189 dc         1 CLA      0.029400
     88 HAC2       72.0251   58.5204   44.8296 dc         1 CLA      0.029300
     89 HAC1       71.3571   58.3911   43.2041 dc         1 CLA      0.029300
     90 HAA2       77.8135   56.8764   34.2803 dc         1 CLA      0.028700
     91 HAA1       78.4483   58.2706   34.8559 dc         1 CLA      0.028700
     92 H203       85.2094   58.0238   46.8679 dc         1 CLA      0.065600
     93 H202       85.1971   59.6512   47.4855 dc         1 CLA      0.065600
     94 H201       84.1987   58.3803   48.0864 dc         1 CLA      0.065600
     95 H193       83.2924   61.0162   47.4195 dc         1 CLA      0.065600
     96 H192       82.0692   60.8527   46.1143 dc         1 CLA      0.065600
     97 H191       81.9319   59.9132   47.6229 dc         1 CLA      0.065600
     98 H172       81.5727   58.3502   45.6337 dc         1 CLA      0.027600
     99 H171       82.6127   57.2117   46.2628 dc         1 CLA      0.027600
    100 H162       84.0949   57.6282   44.2390 dc         1 CLA      0.002900
    101 H161       82.7275   58.5514   43.6349 dc         1 CLA      0.002900
    102 H152       81.2157   56.5483   43.9192 dc         1 CLA      0.029100
    103 H151       82.7209   55.5828   44.2157 dc         1 CLA      0.029100
    104 H143       81.5825   57.1345   40.3235 dc         1 CLA      0.063600
    105 H142       80.8414   57.6196   41.9497 dc         1 CLA      0.063600
    106 H141       82.2751   58.3344   41.4109 dc         1 CLA      0.063600
    107 H122       84.4373   55.4021   42.2695 dc         1 CLA      0.032500
    108 H121       84.3293   56.8918   41.6563 dc         1 CLA      0.032500
    109 H112       83.5488   56.1052   39.4367 dc         1 CLA      0.006600
    110 H111       83.2338   54.3719   40.1022 dc         1 CLA      0.006600
    111 H102       85.5445   54.0309   39.9872 dc         1 CLA      0.024100
    112 H101       85.9169   55.7805   40.1993 dc         1 CLA      0.024100
    113 HHD        72.3648   56.5632   41.3809 da         1 CLA      0.174300
    114 HHC        76.9457   60.4042   43.8914 da         1 CLA      0.136800
    115 HHB        80.5570   59.4968   38.9839 da         1 CLA      0.138300
    116 HBD        75.5363   56.1858   35.0607 dc         1 CLA      0.107700
    117 HAB        78.3221   62.2422   43.8810 da         1 CLA      0.155200
    118 H93        87.3891   56.0024   38.3912 dc         1 CLA      0.069500
    119 H92        87.5528   54.1834   38.3532 dc         1 CLA      0.069500
    120 H91        87.3220   55.0266   36.8632 dc         1 CLA      0.069500
    121 H8         85.0986   55.9780   37.6768 dc         1 CLA      0.029300
    122 H72        85.2010   52.9551   38.1516 dc         1 CLA      0.044400
    123 H71        85.3506   53.6974   36.6014 dc         1 CLA      0.044400
    124 H62        83.2041   54.2955   36.4154 dc         1 CLA      0.015600
    125 H61        82.5903   53.7119   37.9914 dc         1 CLA      0.015600
    126 H52        83.5934   51.5219   37.3501 dc         1 CLA      0.033200
    127 H51        83.7985   52.3432   35.7323 dc         1 CLA      0.033200
    128 H43        82.4057   49.7727   35.5739 dc         1 CLA      0.037000
    129 H42        81.9279   49.8818   37.2101 dc         1 CLA      0.037000
    130 H41        80.6916   49.9406   35.9121 dc         1 CLA      0.037000
    131 H3A        80.0957   58.6653   36.5101 dc         1 CLA      0.041100
    132 H2A        79.0725   55.8784   36.4253 dc         1 CLA      0.083100
    133 H2         80.3440   53.2340   36.8694 da         1 CLA      0.180900
    134 H18        83.9447   59.8032   45.3978 dc         1 CLA     -0.003900
    135 H13        81.8067   55.4083   41.8600 dc         1 CLA      0.019700
    136 H12        79.7824   53.0524   34.3009 dc         1 CLA      0.120400
    137 H11        81.4671   53.1137   33.9117 dc         1 CLA      0.120400
    138 C1         68.3726   60.1933   50.5869 Z1         2 LUT      0.509236
    139 C2         66.9732   60.2298   51.2610 Z2         2 LUT     -0.434695
    140 C3         66.0677   61.4910   51.4002 Z3         2 LUT      0.437453
    141 O3         66.0357   61.9086   52.7846 S1         2 LUT     -0.547129
    142 C4         66.7453   62.5911   50.6412 Z4         2 LUT     -0.468603
    143 C5         67.2689   62.1080   49.3779 Z5         2 LUT      0.279246
    144 C6         68.1157   60.9958   49.2809 Z6         2 LUT     -0.305473
    145 C7         68.4131   60.3973   47.9762 Z7         2 LUT      0.069402
    146 C8         68.9633   61.0595   46.9818 Z8         2 LUT     -0.191631
    147 C9         69.4472   60.5634   45.7084 Z9         2 LUT      0.196698
    148 C10        70.4285   61.3481   45.0948 Y1         2 LUT     -0.208611
    149 C11        71.1650   61.2813   43.8226 Y2         2 LUT      0.030784
    150 C12        72.2905   62.0808   43.5945 Y3         2 LUT     -0.220316
    151 C13        73.1272   62.0564   42.4071 Y4         2 LUT      0.215937
    152 C14        74.1709   62.9514   42.5286 Y5         2 LUT     -0.185793
    153 C15        75.2830   63.0217   41.5926 Y6         2 LUT     -0.057835
    154 C16        68.8978   58.7454   50.4114 Y7         2 LUT     -0.405615
    155 C17        69.3586   60.6862   51.6375 Y7         2 LUT     -0.405615
    156 C18        66.6667   62.8967   48.2332 Y9         2 LUT     -0.369639
    157 C19        69.0021   59.2533   45.1019 W1         2 LUT     -0.333362
    158 C20        72.7637   61.2400   41.1491 W2         2 LUT     -0.323439
    159 C21        86.7052   64.5792   35.9653 Z1         2 LUT      0.406104
    160 C22        87.6842   64.1329   34.8734 Z2         2 LUT     -0.404965
    161 C23        88.0234   65.2517   33.7904 Z3         2 LUT      0.391255
    162 O23        88.9592   64.7112   32.8155 S1         2 LUT     -0.528210
    163 C24        86.7577   65.8714   33.2216 W6         2 LUT     -0.258361
    164 C25        85.5855   65.8311   33.8061 Z5         2 LUT      0.133546
    165 C26        85.3916   65.0522   35.1880 W8         2 LUT     -0.147008
    166 C27        84.3156   65.6930   36.0359 Z7         2 LUT      0.023843
    167 C28        83.4172   64.9427   36.7639 Z8         2 LUT     -0.216987
    168 C29        82.7865   65.3577   37.9960 Z9         2 LUT      0.206524
    169 C30        81.6870   64.6605   38.5047 Y1         2 LUT     -0.215556
    170 C31        80.8041   64.8528   39.5734 Y2         2 LUT      0.025142
    171 C32        79.6555   64.1281   39.8265 Y3         2 LUT     -0.212209
    172 C33        78.7230   64.3311   40.9104 Y4         2 LUT      0.240937
    173 C34        77.5413   63.7246   40.9791 Y5         2 LUT     -0.218862
    174 C35        76.4115   63.8027   41.8781 Y6         2 LUT     -0.023547
    175 C36        87.2569   65.7295   36.8007 Y7         2 LUT     -0.393485
    176 C37        86.3527   63.4231   36.8622 Y7         2 LUT     -0.393485
    177 C38        84.4673   66.7550   33.2246 Y9         2 LUT     -0.387526
    178 C39        83.2593   66.6859   38.6371 W1         2 LUT     -0.322618
    179 C40        79.1852   65.1805   42.0387 W2         2 LUT     -0.358472
    180 H403       80.2704   65.1063   42.1156 R7         2 LUT      0.097720
    181 H402       78.9930   66.2306   41.8873 R7         2 LUT      0.097720
    182 H401       78.9013   64.8531   42.9862 R7         2 LUT      0.097720
    183 H393       83.2268   66.7196   39.7227 R4         2 LUT      0.082505
    184 H392       84.2585   66.9722   38.3046 R4         2 LUT      0.082505
    185 H391       82.6720   67.5088   38.2056 R4         2 LUT      0.082505
    186 H383       83.7997   66.1563   32.5779 R1         2 LUT      0.104030
    187 H382       83.8858   67.0961   33.9937 R1         2 LUT      0.104030
    188 H381       84.8831   67.4850   32.5289 R1         2 LUT      0.104030
    189 H373       87.3045   63.0629   37.2674 T4         2 LUT      0.089537
    190 H372       85.8000   63.7463   37.7273 T4         2 LUT      0.089537
    191 H371       85.7735   62.6717   36.2916 T4         2 LUT      0.089537
    192 H363       86.6288   65.9714   37.7123 T4         2 LUT      0.089537
    193 H362       88.3189   65.6009   37.1550 T4         2 LUT      0.089537
    194 H361       87.2251   66.7029   36.2371 T4         2 LUT      0.089537
    195 H222       88.5576   63.6129   35.2423 U2         2 LUT      0.127376
    196 H221       87.1767   63.3677   34.2627 U2         2 LUT      0.127376
    197 H203       72.6958   61.8061   40.2450 R7         2 LUT      0.087068
    198 H202       73.4006   60.4090   40.8131 R7         2 LUT      0.087068
    199 H201       71.7302   60.8540   41.1923 R7         2 LUT      0.087068
    200 H193       67.9974   58.9144   45.4391 R4         2 LUT      0.089716
    201 H192       68.9803   59.2861   43.9783 R4         2 LUT      0.089716
    202 H191       69.7284   58.4457   45.2773 R4         2 LUT      0.089716
    203 H183       65.6211   63.0723   48.3724 R1         2 LUT      0.094572
    204 H182       67.1497   63.8664   48.0831 R1         2 LUT      0.094572
    205 H181       66.7188   62.3745   47.3273 R1         2 LUT      0.094572
    206 H173       69.2281   60.1041   52.5625 T4         2 LUT      0.093752
    207 H172       70.4307   60.5954   51.3869 T4         2 LUT      0.093752
    208 H171       69.2719   61.7960   51.8299 T4         2 LUT      0.093752
    209 H163       68.8116   58.2828   51.3464 T4         2 LUT      0.093752
    210 H162       68.2723   58.3549   49.5876 T4         2 LUT      0.093752
    211 H161       69.9516   58.7023   50.1327 T4         2 LUT      0.093752
    212 HO3        65.4550   61.3602   53.3658 Q1         2 LUT      0.300121
    213 H8         69.2719   62.0324   47.2943 U7         2 LUT      0.080784
    214 H7         68.1842   59.3725   47.7664 U6         2 LUT      0.042190
    215 H42        66.1153   63.5029   50.6597 U5         2 LUT      0.145166
    216 H41        67.5012   63.1749   51.2523 U5         2 LUT      0.145166
    217 H35        76.4538   64.4128   42.7776 T3         2 LUT      0.077919
    218 H34        77.4034   63.0084   40.1484 T2         2 LUT      0.073626
    219 H32        79.2999   63.3628   39.0843 T1         2 LUT      0.092510
    220 H31        81.0702   65.7460   40.1773 U9         2 LUT      0.070048
    221 H30        81.5993   63.7198   37.8485 U8         2 LUT      0.085442
    222 H3         65.0213   61.3648   50.9979 U3         2 LUT     -0.031596
    223 H28        83.3031   63.9194   36.4935 U7         2 LUT      0.084728
    224 H27        84.6047   66.7370   36.4061 U6         2 LUT      0.087291
    225 H26        85.0281   64.1753   34.7302 Q6         2 LUT      0.075325
    226 H24        86.8901   66.3096   32.2333 Q5         2 LUT      0.094482
    227 H23        88.5837   66.0168   34.3305 U3         2 LUT     -0.024869
    228 H22        66.2826   59.6357   50.6309 U2         2 LUT      0.127376
    229 H21        66.9652   59.7310   52.2063 U2         2 LUT      0.127376
    230 H15        75.3489   62.4016   40.6596 T3         2 LUT      0.093200
    231 H14        74.3367   63.5569   43.4390 T2         2 LUT      0.068865
    232 H12        72.5149   62.6521   44.4444 T1         2 LUT      0.095507
    233 H11        70.8011   60.5197   43.0494 U9         2 LUT      0.068930
    234 H10        70.6549   62.2665   45.5855 U8         2 LUT      0.083911
    235 H1         88.5531   64.0648   32.1855 Q1         2 LUT      0.297311
@<TRIPOS>BOND
    1     6     1 1
    2     7     2 1
    3     8     3 1
    4     9     4 1
    5    11     4 1
    6    12     6 1
    7    13     9 1
    8    16     9 1
    9    25     5 1
   10    25    16 1
   11    26    10 1
   12    26    17 1
   13    27    18 1
   14    28    14 1
   15    28    19 1
   16    29    12 1
   17    30    13 1
   18    31    24 1
   19    32     1 1
   20    32    25 1
   21    33    21 1
   22    33    26 1
   23    34    22 1
   24    34    27 1
   25    35    23 1
   26    35    28 1
   27    36    12 1
   28    36    24 1
   29    37    13 1
   30    37    15 1
   31    38    31 1
   32    39    20 1
   33    39    32 1
   34    40     2 1
   35    40    33 1
   36    41     3 1
   37    41    34 1
   38    42     4 1
   39    42    35 1
   40    43    38 1
   41    44     5 1
   42    44    17 1
   43    44    39 1
   44    45    10 1
   45    45    18 1
   46    45    40 1
   47    46    19 1
   48    46    41 1
   49    47    14 1
   50    47    16 1
   51    47    42 1
   52    48    38 1
   53    49    48 1
   54    50    49 1
   55    51    50 1
   56    52    51 1
   57    53    51 1
   58    54    53 1
   59    55    54 1
   60    56    55 1
   61    57    56 1
   62    58    56 1
   63    59    58 1
   64    60    59 1
   65    61    60 1
   66    62    61 1
   67    63    61 1
   68    64    27 1
   69    64    46 1
   70    65     5 1
   71    65    10 1
   72    65    64 1
   73    65    14 1
   74    66    23 1
   75    67    23 1
   76    68    23 1
   77    69    22 1
   78    70    22 1
   79    71    22 1
   80    72    21 1
   81    73    21 1
   82    74    21 1
   83    75    20 1
   84    76    20 1
   85    77    20 1
   86    78    15 1
   87    79    15 1
   88    80    15 1
   89    81     8 1
   90    82     8 1
   91    83     8 1
   92    84     7 1
   93    85     7 1
   94    86     6 1
   95    87     6 1
   96    88     3 1
   97    89     3 1
   98    90     1 1
   99    91     1 1
  100    92    63 1
  101    93    63 1
  102    94    63 1
  103    95    62 1
  104    96    62 1
  105    97    62 1
  106    98    60 1
  107    99    60 1
  108   100    59 1
  109   101    59 1
  110   102    58 1
  111   103    58 1
  112   104    57 1
  113   105    57 1
  114   106    57 1
  115   107    55 1
  116   108    55 1
  117   109    54 1
  118   110    54 1
  119   111    53 1
  120   112    53 1
  121   113    19 1
  122   114    18 1
  123   115    17 1
  124   116     9 1
  125   117     2 1
  126   118    52 1
  127   119    52 1
  128   120    52 1
  129   121    51 1
  130   122    50 1
  131   123    50 1
  132   124    49 1
  133   125    49 1
  134   126    48 1
  135   127    48 1
  136   128    43 1
  137   129    43 1
  138   130    43 1
  139   131    39 1
  140   132    32 1
  141   133    31 1
  142   134    61 1
  143   135    56 1
  144   136    24 1
  145   137    24 1
  146   139   138 1
  147   140   139 1
  148   141   140 1
  149   142   140 1
  150   143   142 1
  151   144   138 1
  152   144   143 1
  153   145   144 1
  154   146   145 1
  155   147   146 1
  156   148   147 1
  157   149   148 1
  158   150   149 1
  159   151   150 1
  160   152   151 1
  161   153   152 1
  162   154   138 1
  163   155   138 1
  164   156   143 1
  165   157   147 1
  166   158   151 1
  167   160   159 1
  168   161   160 1
  169   162   161 1
  170   163   161 1
  171   164   163 1
  172   165   159 1
  173   165   164 1
  174   166   165 1
  175   167   166 1
  176   168   167 1
  177   169   168 1
  178   170   169 1
  179   171   170 1
  180   172   171 1
  181   173   172 1
  182   174   153 1
  183   174   173 1
  184   175   159 1
  185   176   159 1
  186   177   164 1
  187   178   168 1
  188   179   172 1
  189   180   179 1
  190   181   179 1
  191   182   179 1
  192   183   178 1
  193   184   178 1
  194   185   178 1
  195   186   177 1
  196   187   177 1
  197   188   177 1
  198   189   176 1
  199   190   176 1
  200   191   176 1
  201   192   175 1
  202   193   175 1
  203   194   175 1
  204   195   160 1
  205   196   160 1
  206   197   158 1
  207   198   158 1
  208   199   158 1
  209   200   157 1
  210   201   157 1
  211   202   157 1
  212   203   156 1
  213   204   156 1
  214   205   156 1
  215   206   155 1
  216   207   155 1
  217   208   155 1
  218   209   154 1
  219   210   154 1
  220   211   154 1
  221   212   141 1
  222   213   146 1
  223   214   145 1
  224   215   142 1
  225   216   142 1
  226   217   174 1
  227   218   173 1
  228   219   171 1
  229   220   170 1
  230   221   169 1
  231   222   140 1
  232   223   167 1
  233   224   166 1
  234   225   165 1
  235   226   163 1
  236   227   161 1
  237   228   139 1
  238   229   139 1
  239   230   153 1
  240   231   152 1
  241   232   150 1
  242   233   149 1
  243   234   148 1
  244   235   162 1
  245   65    153 1
  246   65    174 1
@<TRIPOS>SUBSTRUCTURE
      1 CLA               1 ****               0 ****  **** 
      2 LUT             138 ****               0 ****  **** 
