@<TRIPOS>MOLECULE
Cpptraj generated mol2 file.
  235   246     2     0     0
SMALL
USER_CHARGES


@<TRIPOS>ATOM
      1 CAA        77.2433   57.0721   32.8403 a2         1 CLA     -0.055900
      2 CAB        76.8009   61.5579   41.6550 c8         1 CLA     -0.148500
      3 CAC        69.8882   56.8937   41.2853 a2         1 CLA     -0.012600
      4 CAD        73.1333   54.4074   34.2489 ck         1 CLA      0.398800
      5 NA         76.1410   57.6669   36.2257 ns         1 CLA     -0.225500
      6 CBA        78.6141   56.6907   32.1317 a2         1 CLA     -0.135000
      7 CBB        75.8066   62.0323   42.5110 c0         1 CLA     -0.395200
      8 CBC        69.9993   55.3863   41.4054 a3         1 CLA     -0.037700
      9 CBD        74.6312   54.9418   33.8991 a1         1 CLA     -0.053900
     10 NB         75.7097   59.4152   38.7243 nm         1 CLA     -0.295700
     11 OBD        72.6662   53.4829   33.5605 o2         1 CLA     -0.494600
     12 CGA        79.0157   55.2563   32.1236 c4         1 CLA      0.827000
     13 CGD        75.6017   53.7824   33.8786 c4         1 CLA      0.655300
     14 ND         73.3122   56.6840   36.8364 nm         1 CLA     -0.291600
     15 CED        76.2184   51.8398   35.3163 a3         1 CLA      0.005400
     16 CHA        74.8443   56.0718   34.8778 cs         1 CLA     -0.123800
     17 CHB        77.7420   59.2276   37.2868 aa         1 CLA     -0.291900
     18 CHC        74.3343   59.3932   40.8666 aa         1 CLA     -0.090400
     19 CHD        71.3695   56.5069   38.4172 aa         1 CLA     -0.052000
     20 CMA        79.5411   57.1674   35.8756 a3         1 CLA     -0.230700
     21 CMB        78.8573   61.3221   39.3230 a3         1 CLA     -0.180800
     22 CMC        72.0847   58.8910   42.9256 a3         1 CLA     -0.134000
     23 CMD        70.2890   54.3740   36.4400 a3         1 CLA     -0.141100
     24 C1         80.1621   53.5113   33.4074 a2         1 CLA      0.023000
     25 C1A        76.0021   56.8263   35.1724 ac         1 CLA     -0.015100
     26 C1B        77.0023   59.7642   38.3767 cr         1 CLA      0.054700
     27 C1C        73.1768   58.6569   40.5197 cn         1 CLA     -0.005600
     28 C1D        72.0301   56.1988   37.1800 ap         1 CLA     -0.047300
     29 O1A        78.8706   54.5238   31.1682 o2         1 CLA     -0.610800
     30 O1D        76.4725   53.5042   33.0837 o2         1 CLA     -0.558200
     31 C2         80.8162   53.4493   34.6843 c8         1 CLA     -0.325100
     32 C2A        77.3762   56.7495   34.3737 a1         1 CLA      0.098600
     33 C2B        77.5365   60.6706   39.3891 cb         1 CLA      0.088500
     34 C2C        72.0984   58.3591   41.4694 cb         1 CLA      0.053700
     35 C2D        71.5639   55.1628   36.2902 cb         1 CLA      0.058900
     36 O2A        79.6366   54.8464   33.2991 o1         1 CLA     -0.437200
     37 O2D        75.4795   53.1105   35.1110 o1         1 CLA     -0.357600
     38 C3         81.8757   52.7145   35.0710 c5         1 CLA      0.031200
     39 C3A        78.2841   57.7843   35.1601 a1         1 CLA      0.166800
     40 C3B        76.6111   60.6902   40.4428 cb         1 CLA      0.035000
     41 C3C        71.1761   57.5650   40.7953 cb         1 CLA     -0.089900
     42 C3D        72.6719   55.0750   35.4037 cb         1 CLA     -0.035900
     43 C4         81.6668   51.4457   35.8479 a3         1 CLA     -0.053300
     44 C4A        77.3683   58.2508   36.3052 ac         1 CLA      0.001800
     45 C4B        75.4600   59.7873   40.0645 cn         1 CLA     -0.020900
     46 C4C        71.8014   57.3545   39.4590 cr         1 CLA     -0.044400
     47 C4D        73.6681   56.0387   35.7115 c6         1 CLA     -0.046000
     48 C5         83.3329   53.0166   34.7445 a2         1 CLA     -0.070400
     49 C6         83.8129   54.5056   34.6790 a2         1 CLA      0.043900
     50 C7         83.8819   54.9416   36.1909 a2         1 CLA     -0.150000
     51 C8         84.0815   56.4431   36.4779 a1         1 CLA      0.064200
     52 C9         85.5312   56.8415   36.0274 a3         1 CLA     -0.259300
     53 C10        84.0585   56.8019   37.9595 a2         1 CLA     -0.071900
     54 C11        82.6964   56.6161   38.7160 a2         1 CLA      0.014500
     55 C12        82.7043   57.3429   39.9862 a2         1 CLA     -0.112100
     56 C13        81.5015   57.0464   40.8385 a1         1 CLA      0.089200
     57 C14        80.2457   57.7279   40.2441 a3         1 CLA     -0.239100
     58 C15        81.6073   57.2183   42.4048 a2         1 CLA     -0.102200
     59 C16        82.1654   58.5966   42.7909 a2         1 CLA      0.023900
     60 C17        82.1037   58.7232   44.3587 a2         1 CLA     -0.105700
     61 C18        82.4683   60.0809   45.0072 a1         1 CLA      0.206800
     62 C19        83.8895   60.5636   44.8148 a3         1 CLA     -0.280100
     63 C20        81.4280   61.1898   44.5819 a3         1 CLA     -0.280100
     64 NC         72.9155   58.1314   39.2465 nx         1 CLA     -0.309200
     65 MG         74.3829   58.0601   37.6517 mg         1 CLA      0.895000
     66 HMD3       70.1748   53.4777   35.8676 dc         1 CLA      0.064300
     67 HMD2       70.2356   54.0158   37.4467 dc         1 CLA      0.064300
     68 HMD1       69.3821   54.9657   36.1992 dc         1 CLA      0.064300
     69 HMC3       73.0061   58.5114   43.3777 dc         1 CLA      0.052100
     70 HMC2       72.1177   59.9321   42.7661 dc         1 CLA      0.052100
     71 HMC1       71.2645   58.5179   43.5277 dc         1 CLA      0.052100
     72 HMB3       78.9363   61.7551   38.3020 dc         1 CLA      0.063600
     73 HMB2       78.9058   62.1184   40.0443 dc         1 CLA      0.063600
     74 HMB1       79.6899   60.6764   39.4150 dc         1 CLA      0.063600
     75 HMA3       80.0160   57.9805   36.5164 dc         1 CLA      0.058300
     76 HMA2       79.2699   56.3096   36.5295 dc         1 CLA      0.058300
     77 HMA1       80.1808   56.8415   35.0329 dc         1 CLA      0.058300
     78 HED3       75.5979   51.0716   34.8207 dc         1 CLA      0.079300
     79 HED2       77.1900   51.8025   34.7610 dc         1 CLA      0.079300
     80 HED1       76.4431   51.6206   36.3275 dc         1 CLA      0.079300
     81 HBC3       70.3231   54.9085   40.5060 dc         1 CLA      0.016300
     82 HBC2       70.6844   55.1293   42.2327 dc         1 CLA      0.016300
     83 HBC1       69.0186   54.9991   41.6386 dc         1 CLA      0.016300
     84 HBB2       75.9827   62.6257   43.4000 da         1 CLA      0.183000
     85 HBB1       74.7377   61.9317   42.0834 da         1 CLA      0.183000
     86 HBA2       78.6079   57.1610   31.1355 dc         1 CLA      0.029400
     87 HBA1       79.3667   57.2177   32.6721 dc         1 CLA      0.029400
     88 HAC2       69.6092   57.3136   42.2260 dc         1 CLA      0.029300
     89 HAC1       69.0185   57.0605   40.5607 dc         1 CLA      0.029300
     90 HAA2       76.4058   56.4973   32.4094 dc         1 CLA      0.028700
     91 HAA1       76.9869   58.1138   32.7242 dc         1 CLA      0.028700
     92 H203       81.3369   61.4837   43.5444 dc         1 CLA      0.065600
     93 H202       80.4611   60.7431   44.7879 dc         1 CLA      0.065600
     94 H201       81.5916   62.0267   45.2025 dc         1 CLA      0.065600
     95 H193       84.6197   59.8376   45.2518 dc         1 CLA      0.065600
     96 H192       84.0721   60.7295   43.7462 dc         1 CLA      0.065600
     97 H191       84.0476   61.4851   45.3333 dc         1 CLA      0.065600
     98 H172       81.1593   58.4785   44.7859 dc         1 CLA      0.027600
     99 H171       82.8707   58.0517   44.7849 dc         1 CLA      0.027600
    100 H162       83.1639   58.6550   42.3415 dc         1 CLA      0.002900
    101 H161       81.5521   59.3946   42.4397 dc         1 CLA      0.002900
    102 H152       80.6439   57.1857   42.8681 dc         1 CLA      0.029100
    103 H151       82.2362   56.3939   42.7175 dc         1 CLA      0.029100
    104 H143       79.4926   57.4544   40.9764 dc         1 CLA      0.063600
    105 H142       80.3263   58.8025   40.1452 dc         1 CLA      0.063600
    106 H141       79.8732   57.2648   39.3356 dc         1 CLA      0.063600
    107 H122       83.5609   56.9599   40.5301 dc         1 CLA      0.032500
    108 H121       82.9061   58.4027   39.7655 dc         1 CLA      0.032500
    109 H112       81.9626   57.0399   38.0089 dc         1 CLA      0.006600
    110 H111       82.3885   55.6311   38.8563 dc         1 CLA      0.006600
    111 H102       84.8104   56.2056   38.5567 dc         1 CLA      0.024100
    112 H101       84.2661   57.8948   37.8070 dc         1 CLA      0.024100
    113 HHD        70.4364   56.0171   38.7839 da         1 CLA      0.174300
    114 HHC        74.4649   59.7705   41.9030 da         1 CLA      0.136800
    115 HHB        78.7338   59.6812   37.0660 da         1 CLA      0.138300
    116 HBD        74.4302   55.3310   32.8675 dc         1 CLA      0.107700
    117 HAB        77.8205   61.7888   41.9698 da         1 CLA      0.155200
    118 H93        85.6389   56.4138   35.0084 dc         1 CLA      0.069500
    119 H92        85.6920   57.8975   35.9273 dc         1 CLA      0.069500
    120 H91        86.2571   56.3751   36.5897 dc         1 CLA      0.069500
    121 H8         83.3205   57.0480   35.9299 dc         1 CLA      0.029300
    122 H72        82.9042   54.6589   36.5491 dc         1 CLA      0.044400
    123 H71        84.6511   54.4242   36.8033 dc         1 CLA      0.044400
    124 H62        84.7486   54.5030   34.2120 dc         1 CLA      0.015600
    125 H61        83.0324   55.1009   34.1447 dc         1 CLA      0.015600
    126 H52        83.8787   52.6486   35.5428 dc         1 CLA      0.033200
    127 H51        83.4654   52.4575   33.8577 dc         1 CLA      0.033200
    128 H43        82.1235   50.6396   35.2035 dc         1 CLA      0.037000
    129 H42        81.9922   51.4863   36.8897 dc         1 CLA      0.037000
    130 H41        80.6381   51.1709   35.9843 dc         1 CLA      0.037000
    131 H3A        78.4103   58.7126   34.5984 dc         1 CLA      0.041100
    132 H2A        77.8072   55.7764   34.5016 dc         1 CLA      0.083100
    133 H2         80.6152   54.2197   35.4072 da         1 CLA      0.180900
    134 H18        82.3291   59.9104   46.0624 dc         1 CLA     -0.003900
    135 H13        81.1693   56.0682   40.6986 dc         1 CLA      0.019700
    136 H12        79.3721   52.7095   33.4940 dc         1 CLA      0.120400
    137 H11        80.7755   53.1985   32.6055 dc         1 CLA      0.120400
    138 C1         67.7821   60.6185   48.5077 Z1         2 LUT      0.509236
    139 C2         67.2220   61.2655   49.8611 Z2         2 LUT     -0.434695
    140 C3         65.7882   61.6623   49.7913 Z3         2 LUT      0.437453
    141 O3         65.3408   62.2199   50.9973 S1         2 LUT     -0.547129
    142 C4         65.6829   62.7104   48.6979 Z4         2 LUT     -0.468603
    143 C5         66.2637   62.3657   47.4003 Z5         2 LUT      0.279246
    144 C6         67.2081   61.3964   47.2497 Z6         2 LUT     -0.305473
    145 C7         67.7917   61.0143   45.9482 Z7         2 LUT      0.069402
    146 C8         68.4312   61.7387   45.0311 Z8         2 LUT     -0.191631
    147 C9         68.9680   61.3161   43.7362 Z9         2 LUT      0.196698
    148 C10        69.7885   62.1720   43.0832 Y1         2 LUT     -0.208611
    149 C11        70.4826   62.0004   41.9250 Y2         2 LUT      0.030784
    150 C12        71.3072   62.9258   41.4508 Y3         2 LUT     -0.220316
    151 C13        72.2635   62.6124   40.4001 Y4         2 LUT      0.215937
    152 C14        73.3635   63.4428   40.2996 Y5         2 LUT     -0.185793
    153 C15        74.5330   63.2847   39.4614 Y6         2 LUT     -0.057835
    154 C16        67.3928   59.1508   48.3936 Y7         2 LUT     -0.405615
    155 C17        69.3159   60.5991   48.5152 Y7         2 LUT     -0.405615
    156 C18        65.8015   63.2443   46.2103 Y9         2 LUT     -0.369639
    157 C19        68.4468   60.0444   43.1405 W1         2 LUT     -0.333362
    158 C20        71.8590   61.5410   39.4064 W2         2 LUT     -0.323439
    159 C21        86.3133   64.1500   34.6874 Z1         2 LUT      0.406104
    160 C22        87.0048   63.6169   33.3348 Z2         2 LUT     -0.404965
    161 C23        87.1549   64.6719   32.2636 Z3         2 LUT      0.391255
    162 O23        87.7328   63.9956   31.1199 S1         2 LUT     -0.528210
    163 C24        85.8646   65.3919   32.0853 W6         2 LUT     -0.258361
    164 C25        84.9010   65.5430   32.9977 Z5         2 LUT      0.133546
    165 C26        84.9770   64.8403   34.2768 W8         2 LUT     -0.147008
    166 C27        84.2226   65.6119   35.3212 Z7         2 LUT      0.023843
    167 C28        82.9789   65.3634   35.7292 Z8         2 LUT     -0.216987
    168 C29        82.3749   65.7220   36.9804 Z9         2 LUT      0.206524
    169 C30        81.2044   65.0783   37.2414 Y1         2 LUT     -0.215556
    170 C31        80.3297   65.2680   38.3237 Y2         2 LUT      0.025142
    171 C32        79.1251   64.5808   38.4454 Y3         2 LUT     -0.212209
    172 C33        78.1253   64.5869   39.4166 Y4         2 LUT      0.240937
    173 C34        76.9654   63.9658   39.2100 Y5         2 LUT     -0.218862
    174 C35        75.7035   63.9567   39.8537 Y6         2 LUT     -0.023547
    175 C36        87.2730   65.2352   35.2748 Y7         2 LUT     -0.393485
    176 C37        86.0814   62.9740   35.6866 Y7         2 LUT     -0.393485
    177 C38        83.5344   66.1114   32.6097 Y9         2 LUT     -0.387526
    178 C39        82.9398   66.7880   37.9067 W1         2 LUT     -0.322618
    179 C40        78.5731   65.0872   40.7802 W2         2 LUT     -0.358472
    180 H403       78.5134   66.2008   40.9639 R7         2 LUT      0.097720
    181 H402       77.9050   64.6864   41.5411 R7         2 LUT      0.097720
    182 H401       79.6079   64.8080   41.1102 R7         2 LUT      0.097720
    183 H393       83.6796   67.4602   37.4170 R4         2 LUT      0.082505
    184 H392       82.1602   67.4353   38.2910 R4         2 LUT      0.082505
    185 H391       83.5000   66.4360   38.7984 R4         2 LUT      0.082505
    186 H383       83.4741   67.0414   33.1113 R1         2 LUT      0.104030
    187 H382       83.4560   66.2032   31.4961 R1         2 LUT      0.104030
    188 H381       82.7860   65.3974   32.9303 R1         2 LUT      0.104030
    189 H373       85.5443   62.1819   35.2188 T4         2 LUT      0.089537
    190 H372       87.0454   62.5436   35.9506 T4         2 LUT      0.089537
    191 H371       85.5187   63.2261   36.5709 T4         2 LUT      0.089537
    192 H363       86.9238   65.6552   36.1969 T4         2 LUT      0.089537
    193 H362       88.2430   64.6715   35.5123 T4         2 LUT      0.089537
    194 H361       87.4544   66.0779   34.6214 T4         2 LUT      0.089537
    195 H222       87.9801   63.2832   33.5395 U2         2 LUT      0.127376
    196 H221       86.4682   62.7339   32.8734 U2         2 LUT      0.127376
    197 H203       72.7539   61.2695   38.7016 R7         2 LUT      0.087068
    198 H202       71.4378   60.6605   39.8269 R7         2 LUT      0.087068
    199 H201       71.0240   61.8773   38.7977 R7         2 LUT      0.087068
    200 H193       68.6517   59.1159   43.7089 R4         2 LUT      0.089716
    201 H192       67.3683   60.1989   43.2125 R4         2 LUT      0.089716
    202 H191       68.6107   59.8160   42.1044 R4         2 LUT      0.089716
    203 H183       66.2781   64.2660   46.3399 R1         2 LUT      0.094572
    204 H182       65.9459   62.8354   45.2296 R1         2 LUT      0.094572
    205 H181       64.7376   63.4544   46.4068 R1         2 LUT      0.094572
    206 H173       69.8069   61.5776   48.4486 T4         2 LUT      0.093752
    207 H172       69.6337   60.0293   49.3948 T4         2 LUT      0.093752
    208 H171       69.7178   60.1225   47.6168 T4         2 LUT      0.093752
    209 H163       67.7429   58.7219   47.5095 T4         2 LUT      0.093752
    210 H162       67.6110   58.6603   49.3029 T4         2 LUT      0.093752
    211 H161       66.3420   59.1107   48.3018 T4         2 LUT      0.093752
    212 HO3        65.1823   61.5824   51.7061 Q1         2 LUT      0.300121
    213 H8         68.7083   62.7471   45.3647 U7         2 LUT      0.080784
    214 H7         67.5325   59.9941   45.6145 U6         2 LUT      0.042190
    215 H42        64.7562   63.2933   48.6875 U5         2 LUT      0.145166
    216 H41        66.4552   63.3819   49.0578 U5         2 LUT      0.145166
    217 H35        75.5440   64.4741   40.8361 T3         2 LUT      0.077919
    218 H34        77.0142   63.4531   38.2719 T2         2 LUT      0.073626
    219 H32        78.7918   63.8976   37.6814 T1         2 LUT      0.092510
    220 H31        80.6647   65.8505   39.2119 U9         2 LUT      0.070048
    221 H30        80.8906   64.3015   36.5574 U8         2 LUT      0.085442
    222 H3         65.1545   60.9155   49.3321 U3         2 LUT     -0.031596
    223 H28        82.3117   64.7507   35.0902 U7         2 LUT      0.084728
    224 H27        84.8807   66.0918   36.0738 U6         2 LUT      0.087291
    225 H26        84.3219   63.9665   34.1819 Q6         2 LUT      0.075325
    226 H24        85.8044   65.8401   31.0781 Q5         2 LUT      0.094482
    227 H23        87.8888   65.3476   32.6145 U3         2 LUT     -0.024869
    228 H22        67.3532   60.6040   50.6848 U2         2 LUT      0.127376
    229 H21        67.9539   61.9586   50.2174 U2         2 LUT      0.127376
    230 H15        74.6326   62.6917   38.5141 T3         2 LUT      0.093200
    231 H14        73.3908   64.3131   40.9518 T2         2 LUT      0.068865
    232 H12        71.3698   63.8437   42.0571 T1         2 LUT      0.095507
    233 H11        70.2369   61.0698   41.3716 U9         2 LUT      0.068930
    234 H10        70.0647   63.0126   43.6864 U8         2 LUT      0.083911
    235 H1         87.5469   64.4586   30.2406 Q1         2 LUT      0.297311
@<TRIPOS>BOND
    1     6     1 1
    2     7     2 1
    3     8     3 1
    4     9     4 1
    5    11     4 1
    6    12     6 1
    7    13     9 1
    8    16     9 1
    9    25     5 1
   10    25    16 1
   11    26    10 1
   12    26    17 1
   13    27    18 1
   14    28    14 1
   15    28    19 1
   16    29    12 1
   17    30    13 1
   18    31    24 1
   19    32     1 1
   20    32    25 1
   21    33    21 1
   22    33    26 1
   23    34    22 1
   24    34    27 1
   25    35    23 1
   26    35    28 1
   27    36    12 1
   28    36    24 1
   29    37    13 1
   30    37    15 1
   31    38    31 1
   32    39    20 1
   33    39    32 1
   34    40     2 1
   35    40    33 1
   36    41     3 1
   37    41    34 1
   38    42     4 1
   39    42    35 1
   40    43    38 1
   41    44     5 1
   42    44    17 1
   43    44    39 1
   44    45    10 1
   45    45    18 1
   46    45    40 1
   47    46    19 1
   48    46    41 1
   49    47    14 1
   50    47    16 1
   51    47    42 1
   52    48    38 1
   53    49    48 1
   54    50    49 1
   55    51    50 1
   56    52    51 1
   57    53    51 1
   58    54    53 1
   59    55    54 1
   60    56    55 1
   61    57    56 1
   62    58    56 1
   63    59    58 1
   64    60    59 1
   65    61    60 1
   66    62    61 1
   67    63    61 1
   68    64    27 1
   69    64    46 1
   70    65     5 1
   71    65    10 1
   72    65    64 1
   73    65    14 1
   74    66    23 1
   75    67    23 1
   76    68    23 1
   77    69    22 1
   78    70    22 1
   79    71    22 1
   80    72    21 1
   81    73    21 1
   82    74    21 1
   83    75    20 1
   84    76    20 1
   85    77    20 1
   86    78    15 1
   87    79    15 1
   88    80    15 1
   89    81     8 1
   90    82     8 1
   91    83     8 1
   92    84     7 1
   93    85     7 1
   94    86     6 1
   95    87     6 1
   96    88     3 1
   97    89     3 1
   98    90     1 1
   99    91     1 1
  100    92    63 1
  101    93    63 1
  102    94    63 1
  103    95    62 1
  104    96    62 1
  105    97    62 1
  106    98    60 1
  107    99    60 1
  108   100    59 1
  109   101    59 1
  110   102    58 1
  111   103    58 1
  112   104    57 1
  113   105    57 1
  114   106    57 1
  115   107    55 1
  116   108    55 1
  117   109    54 1
  118   110    54 1
  119   111    53 1
  120   112    53 1
  121   113    19 1
  122   114    18 1
  123   115    17 1
  124   116     9 1
  125   117     2 1
  126   118    52 1
  127   119    52 1
  128   120    52 1
  129   121    51 1
  130   122    50 1
  131   123    50 1
  132   124    49 1
  133   125    49 1
  134   126    48 1
  135   127    48 1
  136   128    43 1
  137   129    43 1
  138   130    43 1
  139   131    39 1
  140   132    32 1
  141   133    31 1
  142   134    61 1
  143   135    56 1
  144   136    24 1
  145   137    24 1
  146   139   138 1
  147   140   139 1
  148   141   140 1
  149   142   140 1
  150   143   142 1
  151   144   138 1
  152   144   143 1
  153   145   144 1
  154   146   145 1
  155   147   146 1
  156   148   147 1
  157   149   148 1
  158   150   149 1
  159   151   150 1
  160   152   151 1
  161   153   152 1
  162   154   138 1
  163   155   138 1
  164   156   143 1
  165   157   147 1
  166   158   151 1
  167   160   159 1
  168   161   160 1
  169   162   161 1
  170   163   161 1
  171   164   163 1
  172   165   159 1
  173   165   164 1
  174   166   165 1
  175   167   166 1
  176   168   167 1
  177   169   168 1
  178   170   169 1
  179   171   170 1
  180   172   171 1
  181   173   172 1
  182   174   153 1
  183   174   173 1
  184   175   159 1
  185   176   159 1
  186   177   164 1
  187   178   168 1
  188   179   172 1
  189   180   179 1
  190   181   179 1
  191   182   179 1
  192   183   178 1
  193   184   178 1
  194   185   178 1
  195   186   177 1
  196   187   177 1
  197   188   177 1
  198   189   176 1
  199   190   176 1
  200   191   176 1
  201   192   175 1
  202   193   175 1
  203   194   175 1
  204   195   160 1
  205   196   160 1
  206   197   158 1
  207   198   158 1
  208   199   158 1
  209   200   157 1
  210   201   157 1
  211   202   157 1
  212   203   156 1
  213   204   156 1
  214   205   156 1
  215   206   155 1
  216   207   155 1
  217   208   155 1
  218   209   154 1
  219   210   154 1
  220   211   154 1
  221   212   141 1
  222   213   146 1
  223   214   145 1
  224   215   142 1
  225   216   142 1
  226   217   174 1
  227   218   173 1
  228   219   171 1
  229   220   170 1
  230   221   169 1
  231   222   140 1
  232   223   167 1
  233   224   166 1
  234   225   165 1
  235   226   163 1
  236   227   161 1
  237   228   139 1
  238   229   139 1
  239   230   153 1
  240   231   152 1
  241   232   150 1
  242   233   149 1
  243   234   148 1
  244   235   162 1
  245   65    153 1
  246   65    174 1
@<TRIPOS>SUBSTRUCTURE
      1 CLA               1 ****               0 ****  **** 
      2 LUT             138 ****               0 ****  **** 
