@<TRIPOS>MOLECULE
Cpptraj generated mol2 file.
  235   246     2     0     0
SMALL
USER_CHARGES


@<TRIPOS>ATOM
      1 CAA        79.9842   59.3117   33.8235 a2         1 CLA     -0.055900
      2 CAB        79.7823   62.6590   43.0083 c8         1 CLA     -0.148500
      3 CAC        72.8617   58.6528   42.4338 a2         1 CLA     -0.012600
      4 CAD        75.6152   56.6113   34.9228 ck         1 CLA      0.398800
      5 NA         78.8718   59.4340   37.2547 ns         1 CLA     -0.225500
      6 CBA        81.2322   59.1581   32.9102 a2         1 CLA     -0.135000
      7 CBB        79.5072   62.0462   44.1837 c0         1 CLA     -0.395200
      8 CBC        72.8950   57.1305   42.3238 a3         1 CLA     -0.037700
      9 CBD        77.0800   57.1878   34.5568 a1         1 CLA     -0.053900
     10 NB         78.6396   60.8280   39.9623 nm         1 CLA     -0.295700
     11 OBD        74.8983   55.9043   34.2498 o2         1 CLA     -0.494600
     12 CGA        81.6013   57.7260   32.4733 c4         1 CLA      0.827000
     13 CGD        78.0449   55.9858   34.3596 c4         1 CLA      0.655300
     14 ND         76.0533   58.5399   37.8725 nm         1 CLA     -0.291600
     15 CED        78.9405   54.0062   35.2259 a3         1 CLA      0.005400
     16 CHA        77.5127   58.0696   35.8557 cs         1 CLA     -0.123800
     17 CHB        80.5262   60.9131   38.3479 aa         1 CLA     -0.291900
     18 CHC        77.2292   61.1177   42.0358 aa         1 CLA     -0.090400
     19 CHD        74.0504   58.5348   39.3984 aa         1 CLA     -0.052000
     20 CMA        82.1718   58.6898   36.8029 a3         1 CLA     -0.230700
     21 CMB        81.6652   62.8654   40.4528 a3         1 CLA     -0.180800
     22 CMC        74.7704   60.7722   43.8298 a3         1 CLA     -0.134000
     23 CMD        72.8426   56.7771   36.9246 a3         1 CLA     -0.141100
     24 C1         82.3277   55.6805   33.4717 a2         1 CLA      0.023000
     25 C1A        78.7350   58.7359   36.1462 ac         1 CLA     -0.015100
     26 C1B        79.8191   61.2923   39.5120 cr         1 CLA      0.054700
     27 C1C        76.1175   60.3389   41.6760 cn         1 CLA     -0.005600
     28 C1D        74.7426   58.1356   38.1815 ap         1 CLA     -0.047300
     29 O1A        81.3741   57.1532   31.4070 o2         1 CLA     -0.610800
     30 O1D        78.8243   55.8095   33.4303 o2         1 CLA     -0.558200
     31 C2         82.9620   55.2906   34.8222 c8         1 CLA     -0.325100
     32 C2A        80.1231   58.7374   35.2815 a1         1 CLA      0.098600
     33 C2B        80.3692   62.1299   40.5476 cb         1 CLA      0.088500
     34 C2C        74.8750   60.2036   42.4339 cb         1 CLA      0.053700
     35 C2D        74.2711   57.2747   37.0900 cb         1 CLA      0.058900
     36 O2A        82.2167   57.0942   33.5163 o1         1 CLA     -0.437200
     37 O2D        77.9423   55.0577   35.3789 o1         1 CLA     -0.357600
     38 C3         83.8118   54.2521   35.0940 c5         1 CLA      0.031200
     39 C3A        81.0471   59.5267   36.2027 a1         1 CLA      0.166800
     40 C3B        79.5136   62.0641   41.6861 cb         1 CLA      0.035000
     41 C3C        74.0441   59.2835   41.8433 cb         1 CLA     -0.089900
     42 C3D        75.2736   57.2178   36.1903 cb         1 CLA     -0.035900
     43 C4         83.4925   52.9602   35.8183 a3         1 CLA     -0.053300
     44 C4A        80.0686   59.9992   37.3293 ac         1 CLA      0.001800
     45 C4B        78.3882   61.3260   41.2485 cn         1 CLA     -0.020900
     46 C4C        74.6619   59.0508   40.5514 cr         1 CLA     -0.044400
     47 C4D        76.3273   58.0163   36.6622 c6         1 CLA     -0.046000
     48 C5         85.2273   54.6054   34.6858 a2         1 CLA     -0.070400
     49 C6         85.8541   55.8506   35.3089 a2         1 CLA      0.043900
     50 C7         86.4881   55.7458   36.7730 a2         1 CLA     -0.150000
     51 C8         86.7105   57.1177   37.5025 a1         1 CLA      0.064200
     52 C9         87.6835   58.0887   36.8529 a3         1 CLA     -0.259300
     53 C10        86.9978   56.9498   39.0440 a2         1 CLA     -0.071900
     54 C11        87.0996   58.2759   39.8445 a2         1 CLA      0.014500
     55 C12        87.6337   58.0073   41.2755 a2         1 CLA     -0.112100
     56 C13        87.7916   59.1987   42.2785 a1         1 CLA      0.089200
     57 C14        88.6675   60.3965   41.9059 a3         1 CLA     -0.239100
     58 C15        88.0986   58.6695   43.6687 a2         1 CLA     -0.102200
     59 C16        86.8878   58.2401   44.5174 a2         1 CLA      0.023900
     60 C17        86.2892   59.4166   45.2621 a2         1 CLA     -0.105700
     61 C18        85.0042   59.1521   46.1248 a1         1 CLA      0.206800
     62 C19        85.2459   58.4646   47.4438 a3         1 CLA     -0.280100
     63 C20        84.3730   60.4683   46.4922 a3         1 CLA     -0.280100
     64 NC         75.9152   59.6426   40.4286 nx         1 CLA     -0.309200
     65 MG         77.3074   59.7620   38.7818 mg         1 CLA      0.895000
     66 HMD3       72.7477   56.2886   35.9317 dc         1 CLA      0.064300
     67 HMD2       72.5986   56.0129   37.6735 dc         1 CLA      0.064300
     68 HMD1       72.1323   57.6766   37.0421 dc         1 CLA      0.064300
     69 HMC3       75.4060   61.6596   43.9908 dc         1 CLA      0.052100
     70 HMC2       73.7382   61.0557   43.9189 dc         1 CLA      0.052100
     71 HMC1       75.0120   60.0220   44.6444 dc         1 CLA      0.052100
     72 HMB3       81.5868   63.6469   39.7075 dc         1 CLA      0.063600
     73 HMB2       81.9783   63.3929   41.3883 dc         1 CLA      0.063600
     74 HMB1       82.4612   62.1960   40.0922 dc         1 CLA      0.063600
     75 HMA3       81.7572   57.7758   37.2216 dc         1 CLA      0.058300
     76 HMA2       82.8669   58.4760   36.0926 dc         1 CLA      0.058300
     77 HMA1       82.6490   59.2135   37.6009 dc         1 CLA      0.058300
     78 HED3       78.6628   53.3344   34.4020 dc         1 CLA      0.079300
     79 HED2       79.9997   54.3366   35.0419 dc         1 CLA      0.079300
     80 HED1       78.9214   53.4563   36.1398 dc         1 CLA      0.079300
     81 HBC3       73.7688   56.7031   42.7419 dc         1 CLA      0.016300
     82 HBC2       72.0010   56.8297   42.8333 dc         1 CLA      0.016300
     83 HBC1       72.8548   56.6912   41.3514 dc         1 CLA      0.016300
     84 HBB2       79.8455   62.5602   45.1040 da         1 CLA      0.183000
     85 HBB1       79.1100   61.0078   44.3428 da         1 CLA      0.183000
     86 HBA2       81.1235   59.6088   31.9010 dc         1 CLA      0.029400
     87 HBA1       82.1103   59.5259   33.3143 dc         1 CLA      0.029400
     88 HAC2       72.8314   58.9264   43.5178 dc         1 CLA      0.029300
     89 HAC1       71.8796   59.0767   42.0388 dc         1 CLA      0.029300
     90 HAA2       79.1497   58.7840   33.4603 dc         1 CLA      0.028700
     91 HAA1       79.5747   60.3156   33.8444 dc         1 CLA      0.028700
     92 H203       84.8805   61.2405   47.1221 dc         1 CLA      0.065600
     93 H202       84.1264   61.0674   45.6409 dc         1 CLA      0.065600
     94 H201       83.5323   60.2551   47.0974 dc         1 CLA      0.065600
     95 H193       84.2999   57.9695   47.7999 dc         1 CLA      0.065600
     96 H192       85.9269   57.6450   47.2727 dc         1 CLA      0.065600
     97 H191       85.5961   59.1302   48.2472 dc         1 CLA      0.065600
     98 H172       87.0301   59.7909   45.8630 dc         1 CLA      0.027600
     99 H171       86.1124   60.1430   44.4649 dc         1 CLA      0.027600
    100 H162       86.0504   57.8973   43.9436 dc         1 CLA      0.002900
    101 H161       87.1348   57.5395   45.2980 dc         1 CLA      0.002900
    102 H152       88.6585   57.7026   43.3821 dc         1 CLA      0.029100
    103 H151       88.6946   59.3888   44.1509 dc         1 CLA      0.029100
    104 H143       88.4821   61.2688   42.5341 dc         1 CLA      0.063600
    105 H142       89.7017   60.0733   41.9500 dc         1 CLA      0.063600
    106 H141       88.4469   60.6780   40.8973 dc         1 CLA      0.063600
    107 H122       86.9469   57.3965   41.8368 dc         1 CLA      0.032500
    108 H121       88.5716   57.4961   41.2014 dc         1 CLA      0.032500
    109 H112       87.8778   58.9551   39.3880 dc         1 CLA      0.006600
    110 H111       86.1751   58.7014   40.0413 dc         1 CLA      0.006600
    111 H102       86.1137   56.3848   39.5157 dc         1 CLA      0.024100
    112 H101       87.8226   56.3689   39.2098 dc         1 CLA      0.024100
    113 HHD        73.0431   58.1144   39.6059 da         1 CLA      0.174300
    114 HHC        77.2114   61.4948   43.0504 da         1 CLA      0.136800
    115 HHB        81.4734   61.4217   38.2978 da         1 CLA      0.138300
    116 HBD        77.1152   57.8396   33.6829 dc         1 CLA      0.107700
    117 HAB        80.2395   63.5748   43.0477 da         1 CLA      0.155200
    118 H93        87.4416   58.0619   35.7719 dc         1 CLA      0.069500
    119 H92        87.5582   59.0993   37.2717 dc         1 CLA      0.069500
    120 H91        88.6742   57.7737   36.9252 dc         1 CLA      0.069500
    121 H8         85.7921   57.7448   37.5172 dc         1 CLA      0.029300
    122 H72        85.6341   55.3749   37.2535 dc         1 CLA      0.044400
    123 H71        87.3979   55.0617   36.7633 dc         1 CLA      0.044400
    124 H62        86.6518   56.1829   34.5879 dc         1 CLA      0.015600
    125 H61        85.0894   56.6092   35.3892 dc         1 CLA      0.015600
    126 H52        85.9532   53.8471   34.8469 dc         1 CLA      0.033200
    127 H51        85.2629   54.6756   33.5705 dc         1 CLA      0.033200
    128 H43        83.7127   52.0340   35.2002 dc         1 CLA      0.037000
    129 H42        84.0364   52.8973   36.7345 dc         1 CLA      0.037000
    130 H41        82.4045   53.0338   35.9799 dc         1 CLA      0.037000
    131 H3A        81.5319   60.3250   35.7034 dc         1 CLA      0.041100
    132 H2A        80.4240   57.7055   35.1710 dc         1 CLA      0.083100
    133 H2         82.9112   56.0750   35.6807 da         1 CLA      0.180900
    134 H18        84.2593   58.6611   45.5475 dc         1 CLA     -0.003900
    135 H13        86.8017   59.6878   42.2563 dc         1 CLA      0.019700
    136 H12        81.3205   55.1949   33.3190 dc         1 CLA      0.120400
    137 H11        82.9866   55.3287   32.6206 dc         1 CLA      0.120400
    138 C1         69.2077   62.3859   49.3104 Z1         2 LUT      0.509236
    139 C2         67.8619   62.2141   49.8971 Z2         2 LUT     -0.434695
    140 C3         67.2126   63.4987   50.4913 Z3         2 LUT      0.437453
    141 O3         67.3681   63.5948   51.8734 S1         2 LUT     -0.547129
    142 C4         67.5550   64.6946   49.7179 Z4         2 LUT     -0.468603
    143 C5         68.3189   64.5786   48.4798 Z5         2 LUT      0.279246
    144 C6         69.1287   63.4743   48.3096 Z6         2 LUT     -0.305473
    145 C7         69.5757   63.1018   46.9566 Z7         2 LUT      0.069402
    146 C8         70.5106   63.7359   46.2006 Z8         2 LUT     -0.191631
    147 C9         71.1330   63.2169   44.9356 Z9         2 LUT      0.196698
    148 C10        72.0287   64.0547   44.2943 Y1         2 LUT     -0.208611
    149 C11        72.8572   63.8773   43.0332 Y2         2 LUT      0.030784
    150 C12        74.0250   64.5327   42.7493 Y3         2 LUT     -0.220316
    151 C13        74.9948   64.2585   41.6469 Y4         2 LUT      0.215937
    152 C14        76.2278   64.9292   41.7280 Y5         2 LUT     -0.185793
    153 C15        77.2185   64.9150   40.7339 Y6         2 LUT     -0.057835
    154 C16        69.6410   60.9317   48.9679 Y7         2 LUT     -0.405615
    155 C17        70.2052   62.7977   50.4686 Y7         2 LUT     -0.405615
    156 C18        67.7937   65.5196   47.3504 Y9         2 LUT     -0.369639
    157 C19        70.7223   61.8425   44.3754 W1         2 LUT     -0.333362
    158 C20        74.6576   63.2709   40.4583 W2         2 LUT     -0.323439
    159 C21        88.9516   66.0714   34.9213 Z1         2 LUT      0.406104
    160 C22        89.8165   65.6804   33.5953 Z2         2 LUT     -0.404965
    161 C23        89.8878   66.7948   32.4910 Z3         2 LUT      0.391255
    162 O23        90.6815   66.4114   31.3124 S1         2 LUT     -0.528210
    163 C24        88.5230   67.4696   32.3170 W6         2 LUT     -0.258361
    164 C25        87.4981   67.4559   33.1977 Z5         2 LUT      0.133546
    165 C26        87.4725   66.4771   34.4667 W8         2 LUT     -0.147008
    166 C27        86.5984   67.0860   35.5761 Z7         2 LUT      0.023843
    167 C28        85.3342   66.8220   35.9485 Z8         2 LUT     -0.216987
    168 C29        84.4775   67.3682   37.0187 Z9         2 LUT      0.206524
    169 C30        83.3092   66.6674   37.2172 Y1         2 LUT     -0.215556
    170 C31        82.5626   66.8386   38.4509 Y2         2 LUT      0.025142
    171 C32        81.3069   66.2967   38.6135 Y3         2 LUT     -0.212209
    172 C33        80.5001   66.2604   39.8437 Y4         2 LUT      0.240937
    173 C34        79.3841   65.4953   39.8040 Y5         2 LUT     -0.218862
    174 C35        78.4685   65.3332   40.8816 Y6         2 LUT     -0.023547
    175 C36        89.7883   67.1963   35.6814 Y7         2 LUT     -0.393485
    176 C37        88.8236   64.9019   35.8958 Y7         2 LUT     -0.393485
    177 C38        86.2413   68.2874   32.8661 Y9         2 LUT     -0.387526
    178 C39        84.8913   68.4932   38.0237 W1         2 LUT     -0.322618
    179 C40        80.9384   67.0857   41.0394 W2         2 LUT     -0.358472
    180 H403       80.6809   68.0751   40.8403 R7         2 LUT      0.097720
    181 H402       80.6484   66.8136   42.0345 R7         2 LUT      0.097720
    182 H401       82.0461   67.0411   41.1468 R7         2 LUT      0.097720
    183 H393       85.1773   68.1055   39.0427 R4         2 LUT      0.082505
    184 H392       85.7789   69.0312   37.6421 R4         2 LUT      0.082505
    185 H391       84.1218   69.2568   38.1721 R4         2 LUT      0.082505
    186 H383       86.6252   69.1611   32.2702 R1         2 LUT      0.104030
    187 H382       85.6304   67.6608   32.2640 R1         2 LUT      0.104030
    188 H381       85.7051   68.5763   33.7331 R1         2 LUT      0.104030
    189 H373       89.7574   64.6505   36.3792 T4         2 LUT      0.089537
    190 H372       88.1777   65.2551   36.7139 T4         2 LUT      0.089537
    191 H371       88.3203   64.0522   35.3278 T4         2 LUT      0.089537
    192 H363       89.9819   68.1328   35.0180 T4         2 LUT      0.089537
    193 H362       89.2133   67.7053   36.3972 T4         2 LUT      0.089537
    194 H361       90.7368   66.7539   36.0980 T4         2 LUT      0.089537
    195 H222       90.8954   65.4602   33.8482 U2         2 LUT      0.127376
    196 H221       89.2993   64.9090   33.0273 U2         2 LUT      0.127376
    197 H203       75.4807   62.4552   40.3670 R7         2 LUT      0.087068
    198 H202       73.7253   62.7966   40.7133 R7         2 LUT      0.087068
    199 H201       74.3502   63.8433   39.6068 R7         2 LUT      0.087068
    200 H193       71.4037   61.5495   43.5019 R4         2 LUT      0.089716
    201 H192       70.7433   61.0200   45.1023 R4         2 LUT      0.089716
    202 H191       69.6980   61.9779   43.9263 R4         2 LUT      0.089716
    203 H183       66.6956   65.6433   47.4050 R1         2 LUT      0.094572
    204 H182       68.4163   66.3452   47.3146 R1         2 LUT      0.094572
    205 H181       67.8670   64.9591   46.4087 R1         2 LUT      0.094572
    206 H173       71.1925   62.9707   50.0132 T4         2 LUT      0.093752
    207 H172       69.8205   63.6275   51.1003 T4         2 LUT      0.093752
    208 H171       70.3345   61.9967   51.2298 T4         2 LUT      0.093752
    209 H163       70.7318   61.0246   48.7132 T4         2 LUT      0.093752
    210 H162       69.6205   60.2029   49.7527 T4         2 LUT      0.093752
    211 H161       69.1470   60.4450   48.0946 T4         2 LUT      0.093752
    212 HO3        66.8408   62.9266   52.3104 Q1         2 LUT      0.300121
    213 H8         70.7633   64.7232   46.5510 U7         2 LUT      0.080784
    214 H7         69.4535   62.1348   46.6479 U6         2 LUT      0.042190
    215 H42        66.6152   65.1722   49.3873 U5         2 LUT      0.145166
    216 H41        67.9135   65.4770   50.4276 U5         2 LUT      0.145166
    217 H35        78.7183   65.7528   41.8810 T3         2 LUT      0.077919
    218 H34        79.1290   64.9524   38.8274 T2         2 LUT      0.073626
    219 H32        80.9414   65.6906   37.7704 T1         2 LUT      0.092510
    220 H31        82.9420   67.5372   39.2426 U9         2 LUT      0.070048
    221 H30        82.9917   65.8735   36.5691 U8         2 LUT      0.085442
    222 H3         66.1624   63.3681   50.2792 U3         2 LUT     -0.031596
    223 H28        84.7276   66.2601   35.2057 U7         2 LUT      0.084728
    224 H27        87.0796   67.7494   36.2607 U6         2 LUT      0.087291
    225 H26        86.8966   65.6626   34.0310 Q6         2 LUT      0.075325
    226 H24        88.4318   68.0401   31.3610 Q5         2 LUT      0.094482
    227 H23        90.5127   67.5124   33.0128 U3         2 LUT     -0.024869
    228 H22        67.1892   61.7449   49.2247 U2         2 LUT      0.127376
    229 H21        67.8086   61.5032   50.7208 U2         2 LUT      0.127376
    230 H15        76.8480   64.4121   39.8157 T3         2 LUT      0.093200
    231 H14        76.3984   65.4624   42.6499 T2         2 LUT      0.068865
    232 H12        74.3468   65.2381   43.5168 T1         2 LUT      0.095507
    233 H11        72.5234   63.1346   42.3021 U9         2 LUT      0.068930
    234 H10        72.4185   64.9389   44.8541 U8         2 LUT      0.083911
    235 H1         90.0349   65.9746   30.7113 Q1         2 LUT      0.297311
@<TRIPOS>BOND
    1     6     1 1
    2     7     2 1
    3     8     3 1
    4     9     4 1
    5    11     4 1
    6    12     6 1
    7    13     9 1
    8    16     9 1
    9    25     5 1
   10    25    16 1
   11    26    10 1
   12    26    17 1
   13    27    18 1
   14    28    14 1
   15    28    19 1
   16    29    12 1
   17    30    13 1
   18    31    24 1
   19    32     1 1
   20    32    25 1
   21    33    21 1
   22    33    26 1
   23    34    22 1
   24    34    27 1
   25    35    23 1
   26    35    28 1
   27    36    12 1
   28    36    24 1
   29    37    13 1
   30    37    15 1
   31    38    31 1
   32    39    20 1
   33    39    32 1
   34    40     2 1
   35    40    33 1
   36    41     3 1
   37    41    34 1
   38    42     4 1
   39    42    35 1
   40    43    38 1
   41    44     5 1
   42    44    17 1
   43    44    39 1
   44    45    10 1
   45    45    18 1
   46    45    40 1
   47    46    19 1
   48    46    41 1
   49    47    14 1
   50    47    16 1
   51    47    42 1
   52    48    38 1
   53    49    48 1
   54    50    49 1
   55    51    50 1
   56    52    51 1
   57    53    51 1
   58    54    53 1
   59    55    54 1
   60    56    55 1
   61    57    56 1
   62    58    56 1
   63    59    58 1
   64    60    59 1
   65    61    60 1
   66    62    61 1
   67    63    61 1
   68    64    27 1
   69    64    46 1
   70    65     5 1
   71    65    10 1
   72    65    64 1
   73    65    14 1
   74    66    23 1
   75    67    23 1
   76    68    23 1
   77    69    22 1
   78    70    22 1
   79    71    22 1
   80    72    21 1
   81    73    21 1
   82    74    21 1
   83    75    20 1
   84    76    20 1
   85    77    20 1
   86    78    15 1
   87    79    15 1
   88    80    15 1
   89    81     8 1
   90    82     8 1
   91    83     8 1
   92    84     7 1
   93    85     7 1
   94    86     6 1
   95    87     6 1
   96    88     3 1
   97    89     3 1
   98    90     1 1
   99    91     1 1
  100    92    63 1
  101    93    63 1
  102    94    63 1
  103    95    62 1
  104    96    62 1
  105    97    62 1
  106    98    60 1
  107    99    60 1
  108   100    59 1
  109   101    59 1
  110   102    58 1
  111   103    58 1
  112   104    57 1
  113   105    57 1
  114   106    57 1
  115   107    55 1
  116   108    55 1
  117   109    54 1
  118   110    54 1
  119   111    53 1
  120   112    53 1
  121   113    19 1
  122   114    18 1
  123   115    17 1
  124   116     9 1
  125   117     2 1
  126   118    52 1
  127   119    52 1
  128   120    52 1
  129   121    51 1
  130   122    50 1
  131   123    50 1
  132   124    49 1
  133   125    49 1
  134   126    48 1
  135   127    48 1
  136   128    43 1
  137   129    43 1
  138   130    43 1
  139   131    39 1
  140   132    32 1
  141   133    31 1
  142   134    61 1
  143   135    56 1
  144   136    24 1
  145   137    24 1
  146   139   138 1
  147   140   139 1
  148   141   140 1
  149   142   140 1
  150   143   142 1
  151   144   138 1
  152   144   143 1
  153   145   144 1
  154   146   145 1
  155   147   146 1
  156   148   147 1
  157   149   148 1
  158   150   149 1
  159   151   150 1
  160   152   151 1
  161   153   152 1
  162   154   138 1
  163   155   138 1
  164   156   143 1
  165   157   147 1
  166   158   151 1
  167   160   159 1
  168   161   160 1
  169   162   161 1
  170   163   161 1
  171   164   163 1
  172   165   159 1
  173   165   164 1
  174   166   165 1
  175   167   166 1
  176   168   167 1
  177   169   168 1
  178   170   169 1
  179   171   170 1
  180   172   171 1
  181   173   172 1
  182   174   153 1
  183   174   173 1
  184   175   159 1
  185   176   159 1
  186   177   164 1
  187   178   168 1
  188   179   172 1
  189   180   179 1
  190   181   179 1
  191   182   179 1
  192   183   178 1
  193   184   178 1
  194   185   178 1
  195   186   177 1
  196   187   177 1
  197   188   177 1
  198   189   176 1
  199   190   176 1
  200   191   176 1
  201   192   175 1
  202   193   175 1
  203   194   175 1
  204   195   160 1
  205   196   160 1
  206   197   158 1
  207   198   158 1
  208   199   158 1
  209   200   157 1
  210   201   157 1
  211   202   157 1
  212   203   156 1
  213   204   156 1
  214   205   156 1
  215   206   155 1
  216   207   155 1
  217   208   155 1
  218   209   154 1
  219   210   154 1
  220   211   154 1
  221   212   141 1
  222   213   146 1
  223   214   145 1
  224   215   142 1
  225   216   142 1
  226   217   174 1
  227   218   173 1
  228   219   171 1
  229   220   170 1
  230   221   169 1
  231   222   140 1
  232   223   167 1
  233   224   166 1
  234   225   165 1
  235   226   163 1
  236   227   161 1
  237   228   139 1
  238   229   139 1
  239   230   153 1
  240   231   152 1
  241   232   150 1
  242   233   149 1
  243   234   148 1
  244   235   162 1
  245   65    153 1
  246   65    174 1
@<TRIPOS>SUBSTRUCTURE
      1 CLA               1 ****               0 ****  **** 
      2 LUT             138 ****               0 ****  **** 
