@<TRIPOS>MOLECULE
Cpptraj generated mol2 file.
  235   246     2     0     0
SMALL
USER_CHARGES


@<TRIPOS>ATOM
      1 CAA        77.8531   58.4462   35.1533 a2         1 CLA     -0.055900
      2 CAB        77.9777   62.4298   43.9778 c8         1 CLA     -0.148500
      3 CAC        71.0342   58.5409   43.6758 a2         1 CLA     -0.012600
      4 CAD        73.7157   55.7354   36.4592 ck         1 CLA      0.398800
      5 NA         76.8474   58.9366   38.4903 ns         1 CLA     -0.225500
      6 CBA        79.0696   58.3619   34.1913 a2         1 CLA     -0.135000
      7 CBB        79.1943   62.4363   44.5876 c0         1 CLA     -0.395200
      8 CBC        70.8732   57.0776   43.6451 a3         1 CLA     -0.037700
      9 CBD        75.2144   56.1961   36.1850 a1         1 CLA     -0.053900
     10 NB         76.7751   60.5538   40.9874 nm         1 CLA     -0.295700
     11 OBD        73.2064   54.8864   35.7254 o2         1 CLA     -0.494600
     12 CGA        79.5754   57.0544   33.7072 c4         1 CLA      0.827000
     13 CGD        76.1476   55.0045   36.1712 c4         1 CLA      0.655300
     14 ND         74.0832   57.9981   39.1240 nm         1 CLA     -0.291600
     15 CED        77.0613   53.2612   37.5937 a3         1 CLA      0.005400
     16 CHA        75.5060   57.3246   37.2313 cs         1 CLA     -0.123800
     17 CHB        78.6287   60.1430   39.5442 aa         1 CLA     -0.291900
     18 CHC        75.4551   60.8652   43.0673 aa         1 CLA     -0.090400
     19 CHD        72.3099   58.0256   40.7672 aa         1 CLA     -0.052000
     20 CMA        80.1225   57.8176   37.9731 a3         1 CLA     -0.230700
     21 CMB        80.0318   62.0677   41.5668 a3         1 CLA     -0.180800
     22 CMC        73.1521   60.4850   45.2085 a3         1 CLA     -0.134000
     23 CMD        70.7700   56.1183   38.5427 a3         1 CLA     -0.141100
     24 C1         80.5395   55.0008   34.1357 a2         1 CLA      0.023000
     25 C1A        76.6346   58.1558   37.3879 ac         1 CLA     -0.015100
     26 C1B        78.0628   60.7738   40.6095 cr         1 CLA      0.054700
     27 C1C        74.3027   60.2042   42.8096 cn         1 CLA     -0.005600
     28 C1D        72.8244   57.6031   39.5116 ap         1 CLA     -0.047300
     29 O1A        79.6281   56.7396   32.5100 o2         1 CLA     -0.610800
     30 O1D        76.9996   54.7188   35.3366 o2         1 CLA     -0.558200
     31 C2         80.5733   53.9617   35.2957 c8         1 CLA     -0.325100
     32 C2A        77.9800   57.9321   36.6112 a1         1 CLA      0.098600
     33 C2B        78.6710   61.5204   41.6619 cb         1 CLA      0.088500
     34 C2C        73.2514   59.9068   43.8209 cb         1 CLA      0.053700
     35 C2D        72.2238   56.6527   38.5616 cb         1 CLA      0.058900
     36 O2A        79.9811   56.2576   34.7484 o1         1 CLA     -0.437200
     37 O2D        76.0759   54.2677   37.3665 o1         1 CLA     -0.357600
     38 C3         81.7847   53.5661   35.8772 c5         1 CLA      0.031200
     39 C3A        79.0058   58.6570   37.4765 a1         1 CLA      0.166800
     40 C3B        77.7559   61.7638   42.7335 cb         1 CLA      0.035000
     41 C3C        72.3029   59.1209   43.1120 cb         1 CLA     -0.089900
     42 C3D        73.3163   56.4831   37.6363 cb         1 CLA     -0.035900
     43 C4         82.6013   52.5369   35.2107 a3         1 CLA     -0.053300
     44 C4A        78.0795   59.2954   38.5781 ac         1 CLA      0.001800
     45 C4B        76.6117   61.0405   42.2876 cn         1 CLA     -0.020900
     46 C4C        72.8349   58.8719   41.7653 cr         1 CLA     -0.044400
     47 C4D        74.3751   57.3371   38.0511 c6         1 CLA     -0.046000
     48 C5         82.2855   54.0824   37.2425 a2         1 CLA     -0.070400
     49 C6         83.3648   55.1388   37.0553 a2         1 CLA      0.043900
     50 C7         83.9652   55.6363   38.3889 a2         1 CLA     -0.150000
     51 C8         84.6277   57.0462   38.3173 a1         1 CLA      0.064200
     52 C9         86.0617   56.9186   37.6956 a3         1 CLA     -0.259300
     53 C10        84.7731   57.7470   39.7470 a2         1 CLA     -0.071900
     54 C11        83.4668   58.2537   40.3429 a2         1 CLA      0.014500
     55 C12        83.5823   59.1645   41.6108 a2         1 CLA     -0.112100
     56 C13        84.3431   58.5974   42.8060 a1         1 CLA      0.089200
     57 C14        83.4440   57.4754   43.4422 a3         1 CLA     -0.239100
     58 C15        84.7412   59.6886   43.9227 a2         1 CLA     -0.102200
     59 C16        83.6748   60.5120   44.6283 a2         1 CLA      0.023900
     60 C17        84.3594   61.4629   45.5966 a2         1 CLA     -0.105700
     61 C18        83.3621   62.3088   46.4897 a1         1 CLA      0.206800
     62 C19        82.1961   61.4905   47.1118 a3         1 CLA     -0.280100
     63 C20        84.1268   63.2790   47.4149 a3         1 CLA     -0.280100
     64 NC         74.0442   59.5009   41.6139 nx         1 CLA     -0.309200
     65 MG         75.4009   59.4141   39.9319 mg         1 CLA      0.895000
     66 HMD3       69.9852   56.8713   38.3377 dc         1 CLA      0.064300
     67 HMD2       70.5520   55.1797   37.9731 dc         1 CLA      0.064300
     68 HMD1       70.6820   55.9476   39.6641 dc         1 CLA      0.064300
     69 HMC3       72.8287   61.4878   45.1879 dc         1 CLA      0.052100
     70 HMC2       72.3929   59.9223   45.7317 dc         1 CLA      0.052100
     71 HMC1       74.2318   60.5349   45.6198 dc         1 CLA      0.052100
     72 HMB3       80.8381   61.5058   42.0302 dc         1 CLA      0.063600
     73 HMB2       80.3492   62.2157   40.5372 dc         1 CLA      0.063600
     74 HMB1       79.9920   62.9791   42.0282 dc         1 CLA      0.063600
     75 HMA3       80.8567   58.4221   38.5385 dc         1 CLA      0.058300
     76 HMA2       79.7037   57.0804   38.5583 dc         1 CLA      0.058300
     77 HMA1       80.6792   57.2861   37.1807 dc         1 CLA      0.058300
     78 HED3       76.9632   52.6506   36.7048 dc         1 CLA      0.079300
     79 HED2       78.0830   53.6468   37.7645 dc         1 CLA      0.079300
     80 HED1       76.6183   52.6033   38.3816 dc         1 CLA      0.079300
     81 HBC3       69.8078   56.8031   43.7414 dc         1 CLA      0.016300
     82 HBC2       71.2733   56.6425   42.7080 dc         1 CLA      0.016300
     83 HBC1       71.4241   56.5207   44.4030 dc         1 CLA      0.016300
     84 HBB2       79.4064   62.7676   45.6446 da         1 CLA      0.183000
     85 HBB1       80.0879   62.0026   44.1509 da         1 CLA      0.183000
     86 HBA2       78.9354   58.9313   33.3045 dc         1 CLA      0.029400
     87 HBA1       79.9643   58.6994   34.7070 dc         1 CLA      0.029400
     88 HAC2       70.9168   58.8921   44.6820 dc         1 CLA      0.029300
     89 HAC1       70.1894   58.9960   43.0881 dc         1 CLA      0.029300
     90 HAA2       77.0665   57.8781   34.7176 dc         1 CLA      0.028700
     91 HAA1       77.5206   59.4734   35.2342 dc         1 CLA      0.028700
     92 H203       84.7966   62.5894   48.0120 dc         1 CLA      0.065600
     93 H202       84.7313   64.0985   46.9216 dc         1 CLA      0.065600
     94 H201       83.4802   63.7627   48.2193 dc         1 CLA      0.065600
     95 H193       82.6306   60.7480   47.7698 dc         1 CLA      0.065600
     96 H192       81.6955   62.1750   47.6783 dc         1 CLA      0.065600
     97 H191       81.5903   61.0991   46.3587 dc         1 CLA      0.065600
     98 H172       84.8513   60.7724   46.2986 dc         1 CLA      0.027600
     99 H171       85.0925   62.0790   45.1996 dc         1 CLA      0.027600
    100 H162       83.1042   61.0630   43.8577 dc         1 CLA      0.002900
    101 H161       82.9131   59.8536   45.0426 dc         1 CLA      0.002900
    102 H152       85.2831   59.1635   44.6760 dc         1 CLA      0.029100
    103 H151       85.4347   60.3332   43.4863 dc         1 CLA      0.029100
    104 H143       82.4434   57.8603   43.8124 dc         1 CLA      0.063600
    105 H142       83.3833   56.5224   42.8772 dc         1 CLA      0.063600
    106 H141       84.0613   57.2836   44.3506 dc         1 CLA      0.063600
    107 H122       84.1649   60.0108   41.3809 dc         1 CLA      0.032500
    108 H121       82.5985   59.4665   41.8961 dc         1 CLA      0.032500
    109 H112       83.0440   58.9169   39.5814 dc         1 CLA      0.006600
    110 H111       82.7395   57.4366   40.5232 dc         1 CLA      0.006600
    111 H102       85.0741   56.9200   40.4562 dc         1 CLA      0.024100
    112 H101       85.4583   58.5853   39.7700 dc         1 CLA      0.024100
    113 HHD        71.2819   57.7292   40.9511 da         1 CLA      0.174300
    114 HHC        75.4033   61.2156   44.1245 da         1 CLA      0.136800
    115 HHB        79.6253   60.1707   39.4145 da         1 CLA      0.138300
    116 HBD        75.2269   56.5441   35.1573 dc         1 CLA      0.107700
    117 HAB        77.1180   62.9267   44.4715 da         1 CLA      0.155200
    118 H93        86.5969   57.8056   37.9430 dc         1 CLA      0.069500
    119 H92        86.5524   56.0047   38.0386 dc         1 CLA      0.069500
    120 H91        86.0621   56.9042   36.6148 dc         1 CLA      0.069500
    121 H8         84.0196   57.6861   37.6305 dc         1 CLA      0.029300
    122 H72        83.0865   55.7075   39.0082 dc         1 CLA      0.044400
    123 H71        84.5755   54.8509   38.7714 dc         1 CLA      0.044400
    124 H62        84.2037   54.6703   36.5257 dc         1 CLA      0.015600
    125 H61        83.0574   56.0880   36.5070 dc         1 CLA      0.015600
    126 H52        81.6037   54.4197   37.9656 dc         1 CLA      0.033200
    127 H51        82.8692   53.2178   37.7415 dc         1 CLA      0.033200
    128 H43        82.8159   51.6714   35.8737 dc         1 CLA      0.037000
    129 H42        82.0299   52.0488   34.4204 dc         1 CLA      0.037000
    130 H41        83.5477   52.9905   34.9016 dc         1 CLA      0.037000
    131 H3A        79.4155   59.4247   36.9189 dc         1 CLA      0.041100
    132 H2A        78.1247   56.8486   36.6357 dc         1 CLA      0.083100
    133 H2         79.7794   53.3032   35.4669 da         1 CLA      0.180900
    134 H18        82.8488   63.0118   45.8309 dc         1 CLA     -0.003900
    135 H13        85.2401   58.0571   42.4565 dc         1 CLA      0.019700
    136 H12        79.9649   54.5774   33.3202 dc         1 CLA      0.120400
    137 H11        81.5608   55.2246   33.9379 dc         1 CLA      0.120400
    138 C1         66.5527   62.0060   50.9320 Z1         2 LUT      0.509236
    139 C2         66.4106   63.2980   51.8190 Z2         2 LUT     -0.434695
    140 C3         65.0366   63.9786   51.7536 Z3         2 LUT      0.437453
    141 O3         65.3617   65.3210   52.2092 S1         2 LUT     -0.547129
    142 C4         64.5232   63.9630   50.2641 Z4         2 LUT     -0.468603
    143 C5         65.5807   63.5248   49.2270 Z5         2 LUT      0.279246
    144 C6         66.3961   62.4688   49.4974 Z6         2 LUT     -0.305473
    145 C7         67.4334   62.1496   48.4989 Z7         2 LUT      0.069402
    146 C8         68.2760   62.8131   47.6652 Z8         2 LUT     -0.191631
    147 C9         69.0316   62.3921   46.4972 Z9         2 LUT      0.196698
    148 C10        69.8898   63.2746   45.7815 Y1         2 LUT     -0.208611
    149 C11        70.5301   63.0084   44.5744 Y2         2 LUT      0.030784
    150 C12        71.5403   63.7644   44.0756 Y3         2 LUT     -0.220316
    151 C13        72.4193   63.6275   42.9185 Y4         2 LUT      0.215937
    152 C14        73.6511   64.2533   42.9296 Y5         2 LUT     -0.185793
    153 C15        74.7871   64.2005   41.9826 Y6         2 LUT     -0.057835
    154 C16        65.4844   61.0519   51.4694 Y7         2 LUT     -0.405615
    155 C17        67.9310   61.2559   51.2946 Y7         2 LUT     -0.405615
    156 C18        65.4004   64.2167   47.9794 Y9         2 LUT     -0.369639
    157 C19        68.9178   60.9036   45.9997 W1         2 LUT     -0.333362
    158 C20        72.0797   62.6343   41.9044 W2         2 LUT     -0.323439
    159 C21        86.8445   65.8719   36.5895 Z1         2 LUT      0.406104
    160 C22        87.6343   65.2266   35.4079 Z2         2 LUT     -0.404965
    161 C23        87.6172   66.0666   34.1227 Z3         2 LUT      0.391255
    162 O23        88.5814   65.4310   33.3024 S1         2 LUT     -0.528210
    163 C24        86.2900   66.7392   33.8567 W6         2 LUT     -0.258361
    164 C25        85.2409   66.8592   34.6817 Z5         2 LUT      0.133546
    165 C26        85.3480   66.1597   36.0823 W8         2 LUT     -0.147008
    166 C27        84.4725   66.8041   37.1604 Z7         2 LUT      0.023843
    167 C28        83.2610   66.2703   37.6583 Z8         2 LUT     -0.216987
    168 C29        82.4049   66.7288   38.8053 Z9         2 LUT      0.206524
    169 C30        81.3406   65.9672   39.2062 Y1         2 LUT     -0.215556
    170 C31        80.4795   66.0808   40.4143 Y2         2 LUT      0.025142
    171 C32        79.2189   65.5416   40.5495 Y3         2 LUT     -0.212209
    172 C33        78.2331   65.6041   41.5741 Y4         2 LUT      0.240937
    173 C34        77.0899   64.9700   41.3811 Y5         2 LUT     -0.218862
    174 C35        75.9579   64.9514   42.2494 Y6         2 LUT     -0.023547
    175 C36        87.5639   67.1395   37.1640 Y7         2 LUT     -0.393485
    176 C37        86.6674   64.7621   37.6491 Y7         2 LUT     -0.393485
    177 C38        83.9992   67.6123   34.2726 Y9         2 LUT     -0.387526
    178 C39        82.7642   67.9830   39.5540 W1         2 LUT     -0.322618
    179 C40        78.6283   66.3053   42.8940 W2         2 LUT     -0.358472
    180 H403       79.3235   65.6780   43.4752 R7         2 LUT      0.097720
    181 H402       79.0592   67.2736   42.7673 R7         2 LUT      0.097720
    182 H401       77.8578   66.5001   43.5727 R7         2 LUT      0.097720
    183 H393       81.9740   68.5391   39.9841 R4         2 LUT      0.082505
    184 H392       83.3877   67.7050   40.3281 R4         2 LUT      0.082505
    185 H391       83.3783   68.6601   39.0316 R4         2 LUT      0.082505
    186 H383       83.4492   67.0595   33.5304 R1         2 LUT      0.104030
    187 H382       83.1941   67.6423   35.0767 R1         2 LUT      0.104030
    188 H381       84.1884   68.5865   33.7596 R1         2 LUT      0.104030
    189 H373       87.5824   64.5852   38.0313 T4         2 LUT      0.089537
    190 H372       85.9591   65.0405   38.4298 T4         2 LUT      0.089537
    191 H371       86.4810   63.8410   37.2565 T4         2 LUT      0.089537
    192 H363       87.4627   67.8834   36.4388 T4         2 LUT      0.089537
    193 H362       87.0603   67.3564   38.1333 T4         2 LUT      0.089537
    194 H361       88.6616   67.0707   37.4172 T4         2 LUT      0.089537
    195 H222       88.6463   65.0824   35.5767 U2         2 LUT      0.127376
    196 H221       87.2829   64.2116   35.1494 U2         2 LUT      0.127376
    197 H203       72.7768   62.4102   41.0841 R7         2 LUT      0.087068
    198 H202       71.8364   61.6306   42.3304 R7         2 LUT      0.087068
    199 H201       71.1874   62.9106   41.3361 R7         2 LUT      0.087068
    200 H193       69.8929   60.4121   45.9481 R4         2 LUT      0.089716
    201 H192       68.2386   60.2377   46.5465 R4         2 LUT      0.089716
    202 H191       68.5391   60.9381   44.9825 R4         2 LUT      0.089716
    203 H183       64.3551   64.5512   47.7497 R1         2 LUT      0.094572
    204 H182       66.0600   65.1293   47.8786 R1         2 LUT      0.094572
    205 H181       65.7307   63.5208   47.1751 R1         2 LUT      0.094572
    206 H173       67.9762   61.1425   52.4028 T4         2 LUT      0.093752
    207 H172       68.0669   60.2593   50.9031 T4         2 LUT      0.093752
    208 H171       68.8135   61.8863   51.0657 T4         2 LUT      0.093752
    209 H163       65.3951   60.2116   50.7576 T4         2 LUT      0.093752
    210 H162       65.7813   60.7121   52.4202 T4         2 LUT      0.093752
    211 H161       64.5026   61.5310   51.5092 T4         2 LUT      0.093752
    212 HO3        64.6184   65.7696   52.5763 Q1         2 LUT      0.300121
    213 H8         68.1722   63.8531   47.7516 U7         2 LUT      0.080784
    214 H7         67.6011   61.0798   48.4816 U6         2 LUT      0.042190
    215 H42        63.5514   63.4037   50.1838 U5         2 LUT      0.145166
    216 H41        64.1848   64.9772   50.0745 U5         2 LUT      0.145166
    217 H35        76.0605   65.5088   43.1454 T3         2 LUT      0.077919
    218 H34        76.8294   64.5998   40.3937 T2         2 LUT      0.073626
    219 H32        78.9190   64.9730   39.6549 T1         2 LUT      0.092510
    220 H31        80.7767   66.7290   41.1809 U9         2 LUT      0.070048
    221 H30        81.1178   65.1326   38.5684 U8         2 LUT      0.085442
    222 H3         64.2457   63.5307   52.4438 U3         2 LUT     -0.031596
    223 H28        82.9899   65.4116   37.0765 U7         2 LUT      0.084728
    224 H27        84.8356   67.7094   37.5463 U6         2 LUT      0.087291
    225 H26        84.9009   65.1609   35.9023 Q6         2 LUT      0.075325
    226 H24        86.2044   67.2227   32.9207 Q5         2 LUT      0.094482
    227 H23        88.3155   66.9698   34.3587 U3         2 LUT     -0.024869
    228 H22        66.7778   63.0598   52.8110 U2         2 LUT      0.127376
    229 H21        67.0640   64.1252   51.5304 U2         2 LUT      0.127376
    230 H15        74.8064   63.5845   41.0938 T3         2 LUT      0.093200
    231 H14        73.8272   64.9624   43.7892 T2         2 LUT      0.068865
    232 H12        71.8827   64.6027   44.6495 T1         2 LUT      0.095507
    233 H11        70.3325   62.0927   43.9916 U9         2 LUT      0.068930
    234 H10        69.9888   64.2300   46.0641 U8         2 LUT      0.083911
    235 H1         88.1838   65.0880   32.4542 Q1         2 LUT      0.297311
@<TRIPOS>BOND
    1     6     1 1
    2     7     2 1
    3     8     3 1
    4     9     4 1
    5    11     4 1
    6    12     6 1
    7    13     9 1
    8    16     9 1
    9    25     5 1
   10    25    16 1
   11    26    10 1
   12    26    17 1
   13    27    18 1
   14    28    14 1
   15    28    19 1
   16    29    12 1
   17    30    13 1
   18    31    24 1
   19    32     1 1
   20    32    25 1
   21    33    21 1
   22    33    26 1
   23    34    22 1
   24    34    27 1
   25    35    23 1
   26    35    28 1
   27    36    12 1
   28    36    24 1
   29    37    13 1
   30    37    15 1
   31    38    31 1
   32    39    20 1
   33    39    32 1
   34    40     2 1
   35    40    33 1
   36    41     3 1
   37    41    34 1
   38    42     4 1
   39    42    35 1
   40    43    38 1
   41    44     5 1
   42    44    17 1
   43    44    39 1
   44    45    10 1
   45    45    18 1
   46    45    40 1
   47    46    19 1
   48    46    41 1
   49    47    14 1
   50    47    16 1
   51    47    42 1
   52    48    38 1
   53    49    48 1
   54    50    49 1
   55    51    50 1
   56    52    51 1
   57    53    51 1
   58    54    53 1
   59    55    54 1
   60    56    55 1
   61    57    56 1
   62    58    56 1
   63    59    58 1
   64    60    59 1
   65    61    60 1
   66    62    61 1
   67    63    61 1
   68    64    27 1
   69    64    46 1
   70    65     5 1
   71    65    10 1
   72    65    64 1
   73    65    14 1
   74    66    23 1
   75    67    23 1
   76    68    23 1
   77    69    22 1
   78    70    22 1
   79    71    22 1
   80    72    21 1
   81    73    21 1
   82    74    21 1
   83    75    20 1
   84    76    20 1
   85    77    20 1
   86    78    15 1
   87    79    15 1
   88    80    15 1
   89    81     8 1
   90    82     8 1
   91    83     8 1
   92    84     7 1
   93    85     7 1
   94    86     6 1
   95    87     6 1
   96    88     3 1
   97    89     3 1
   98    90     1 1
   99    91     1 1
  100    92    63 1
  101    93    63 1
  102    94    63 1
  103    95    62 1
  104    96    62 1
  105    97    62 1
  106    98    60 1
  107    99    60 1
  108   100    59 1
  109   101    59 1
  110   102    58 1
  111   103    58 1
  112   104    57 1
  113   105    57 1
  114   106    57 1
  115   107    55 1
  116   108    55 1
  117   109    54 1
  118   110    54 1
  119   111    53 1
  120   112    53 1
  121   113    19 1
  122   114    18 1
  123   115    17 1
  124   116     9 1
  125   117     2 1
  126   118    52 1
  127   119    52 1
  128   120    52 1
  129   121    51 1
  130   122    50 1
  131   123    50 1
  132   124    49 1
  133   125    49 1
  134   126    48 1
  135   127    48 1
  136   128    43 1
  137   129    43 1
  138   130    43 1
  139   131    39 1
  140   132    32 1
  141   133    31 1
  142   134    61 1
  143   135    56 1
  144   136    24 1
  145   137    24 1
  146   139   138 1
  147   140   139 1
  148   141   140 1
  149   142   140 1
  150   143   142 1
  151   144   138 1
  152   144   143 1
  153   145   144 1
  154   146   145 1
  155   147   146 1
  156   148   147 1
  157   149   148 1
  158   150   149 1
  159   151   150 1
  160   152   151 1
  161   153   152 1
  162   154   138 1
  163   155   138 1
  164   156   143 1
  165   157   147 1
  166   158   151 1
  167   160   159 1
  168   161   160 1
  169   162   161 1
  170   163   161 1
  171   164   163 1
  172   165   159 1
  173   165   164 1
  174   166   165 1
  175   167   166 1
  176   168   167 1
  177   169   168 1
  178   170   169 1
  179   171   170 1
  180   172   171 1
  181   173   172 1
  182   174   153 1
  183   174   173 1
  184   175   159 1
  185   176   159 1
  186   177   164 1
  187   178   168 1
  188   179   172 1
  189   180   179 1
  190   181   179 1
  191   182   179 1
  192   183   178 1
  193   184   178 1
  194   185   178 1
  195   186   177 1
  196   187   177 1
  197   188   177 1
  198   189   176 1
  199   190   176 1
  200   191   176 1
  201   192   175 1
  202   193   175 1
  203   194   175 1
  204   195   160 1
  205   196   160 1
  206   197   158 1
  207   198   158 1
  208   199   158 1
  209   200   157 1
  210   201   157 1
  211   202   157 1
  212   203   156 1
  213   204   156 1
  214   205   156 1
  215   206   155 1
  216   207   155 1
  217   208   155 1
  218   209   154 1
  219   210   154 1
  220   211   154 1
  221   212   141 1
  222   213   146 1
  223   214   145 1
  224   215   142 1
  225   216   142 1
  226   217   174 1
  227   218   173 1
  228   219   171 1
  229   220   170 1
  230   221   169 1
  231   222   140 1
  232   223   167 1
  233   224   166 1
  234   225   165 1
  235   226   163 1
  236   227   161 1
  237   228   139 1
  238   229   139 1
  239   230   153 1
  240   231   152 1
  241   232   150 1
  242   233   149 1
  243   234   148 1
  244   235   162 1
  245   65    153 1
  246   65    174 1
@<TRIPOS>SUBSTRUCTURE
      1 CLA               1 ****               0 ****  **** 
      2 LUT             138 ****               0 ****  **** 
