@<TRIPOS>MOLECULE
Cpptraj generated mol2 file.
  235   246     2     0     0
SMALL
USER_CHARGES


@<TRIPOS>ATOM
      1 CAA        79.8569   58.8820   34.4138 a2         1 CLA     -0.055900
      2 CAB        80.0180   62.2290   43.5669 c8         1 CLA     -0.148500
      3 CAC        73.1807   57.9208   43.1791 a2         1 CLA     -0.012600
      4 CAD        75.6857   56.1164   35.6853 ck         1 CLA      0.398800
      5 NA         78.8936   58.9882   37.7962 ns         1 CLA     -0.225500
      6 CBA        81.1243   58.7800   33.4985 a2         1 CLA     -0.135000
      7 CBB        81.1109   62.2728   44.3650 c0         1 CLA     -0.395200
      8 CBC        73.1476   56.3794   43.1335 a3         1 CLA     -0.037700
      9 CBD        77.1613   56.7145   35.2357 a1         1 CLA     -0.053900
     10 NB         78.9707   60.3218   40.4662 nm         1 CLA     -0.295700
     11 OBD        75.0822   55.3387   34.9361 o2         1 CLA     -0.494600
     12 CGA        81.6551   57.4595   33.0607 c4         1 CLA      0.827000
     13 CGD        78.1978   55.6117   35.1337 c4         1 CLA      0.655300
     14 ND         76.1578   57.9592   38.5424 nm         1 CLA     -0.291600
     15 CED        79.3022   53.7406   36.2383 a3         1 CLA      0.005400
     16 CHA        77.4871   57.6476   36.3712 cs         1 CLA     -0.123800
     17 CHB        80.7005   60.3759   38.8195 aa         1 CLA     -0.291900
     18 CHC        77.6209   60.4974   42.5980 aa         1 CLA     -0.090400
     19 CHD        74.4410   57.6921   40.1930 aa         1 CLA     -0.052000
     20 CMA        82.3562   58.2857   36.9459 a3         1 CLA     -0.230700
     21 CMB        82.1702   62.2640   41.0223 a3         1 CLA     -0.180800
     22 CMC        75.4761   59.6652   44.7357 a3         1 CLA     -0.134000
     23 CMD        73.0371   55.7730   37.9907 a3         1 CLA     -0.141100
     24 C1         82.5597   55.3873   33.8768 a2         1 CLA      0.023000
     25 C1A        78.7525   58.2465   36.6695 ac         1 CLA     -0.015100
     26 C1B        80.1794   60.7478   40.0561 cr         1 CLA      0.054700
     27 C1C        76.4193   59.7548   42.3359 cn         1 CLA     -0.005600
     28 C1D        74.8949   57.4540   38.9278 ap         1 CLA     -0.047300
     29 O1A        81.7421   57.0899   31.9337 o2         1 CLA     -0.610800
     30 O1D        78.9778   55.4955   34.1971 o2         1 CLA     -0.558200
     31 C2         82.8854   54.7992   35.2600 c8         1 CLA     -0.325100
     32 C2A        80.0620   58.3378   35.8416 a1         1 CLA      0.098600
     33 C2B        80.8076   61.5757   41.1381 cb         1 CLA      0.088500
     34 C2C        75.3776   59.3783   43.2587 cb         1 CLA      0.053700
     35 C2D        74.3612   56.6086   37.9214 cb         1 CLA      0.058900
     36 O2A        82.0419   56.7240   34.1192 o1         1 CLA     -0.437200
     37 O2D        78.2649   54.7740   36.2644 o1         1 CLA     -0.357600
     38 C3         83.9350   54.0427   35.5473 c5         1 CLA      0.031200
     39 C3A        81.0509   59.1236   36.7106 a1         1 CLA      0.166800
     40 C3B        79.8963   61.6303   42.1949 cb         1 CLA      0.035000
     41 C3C        74.4086   58.6496   42.6095 cb         1 CLA     -0.089900
     42 C3D        75.3284   56.6776   36.9136 cb         1 CLA     -0.035900
     43 C4         83.8514   52.5679   35.7668 a3         1 CLA     -0.053300
     44 C4A        80.1807   59.5061   37.8453 ac         1 CLA      0.001800
     45 C4B        78.7597   60.8104   41.7664 cn         1 CLA     -0.020900
     46 C4C        74.9295   58.5322   41.1918 cr         1 CLA     -0.044400
     47 C4D        76.4174   57.5306   37.2721 c6         1 CLA     -0.046000
     48 C5         85.2090   54.7033   36.0231 a2         1 CLA     -0.070400
     49 C6         85.2129   55.3471   37.4686 a2         1 CLA      0.043900
     50 C7         86.6078   55.9086   37.8600 a2         1 CLA     -0.150000
     51 C8         86.5616   56.7516   39.2362 a1         1 CLA      0.064200
     52 C9         86.2293   58.2420   39.0053 a3         1 CLA     -0.259300
     53 C10        87.8038   56.5581   40.1583 a2         1 CLA     -0.071900
     54 C11        87.7330   57.1621   41.5945 a2         1 CLA      0.014500
     55 C12        88.7608   56.5711   42.5637 a2         1 CLA     -0.112100
     56 C13        88.7362   57.2015   43.9679 a1         1 CLA      0.089200
     57 C14        89.7088   56.5049   44.8866 a3         1 CLA     -0.239100
     58 C15        87.3571   57.2883   44.7265 a2         1 CLA     -0.102200
     59 C16        87.3623   57.9004   46.0936 a2         1 CLA      0.023900
     60 C17        86.0418   58.4166   46.5574 a2         1 CLA     -0.105700
     61 C18        85.8152   58.4628   48.0539 a1         1 CLA      0.206800
     62 C19        84.6642   59.4190   48.3735 a3         1 CLA     -0.280100
     63 C20        85.6528   57.1181   48.6507 a3         1 CLA     -0.280100
     64 NC         76.0697   59.2866   41.1393 nx         1 CLA     -0.309200
     65 MG         77.4998   59.3675   39.3542 mg         1 CLA      0.895000
     66 HMD3       72.2410   56.4521   38.2626 dc         1 CLA      0.064300
     67 HMD2       72.8546   55.2577   37.0581 dc         1 CLA      0.064300
     68 HMD1       73.0413   54.9853   38.7843 dc         1 CLA      0.064300
     69 HMC3       74.7973   60.4257   45.0576 dc         1 CLA      0.052100
     70 HMC2       75.4472   58.6904   45.2940 dc         1 CLA      0.052100
     71 HMC1       76.5023   59.9066   44.9232 dc         1 CLA      0.052100
     72 HMB3       82.0924   63.0485   40.2810 dc         1 CLA      0.063600
     73 HMB2       82.5993   62.7065   41.9314 dc         1 CLA      0.063600
     74 HMB1       82.8005   61.4833   40.6008 dc         1 CLA      0.063600
     75 HMA3       82.9098   58.1227   36.0646 dc         1 CLA      0.058300
     76 HMA2       83.1061   58.7342   37.4999 dc         1 CLA      0.058300
     77 HMA1       82.1284   57.3633   37.4602 dc         1 CLA      0.058300
     78 HED3       78.9619   52.9109   35.5991 dc         1 CLA      0.079300
     79 HED2       80.2433   54.1791   35.8168 dc         1 CLA      0.079300
     80 HED1       79.4096   53.5187   37.2864 dc         1 CLA      0.079300
     81 HBC3       72.2924   56.1657   43.8336 dc         1 CLA      0.016300
     82 HBC2       72.8838   56.0127   42.1366 dc         1 CLA      0.016300
     83 HBC1       74.0515   55.9322   43.3214 dc         1 CLA      0.016300
     84 HBB2       81.0985   62.7957   45.2947 da         1 CLA      0.183000
     85 HBB1       82.0939   61.8818   44.0914 da         1 CLA      0.183000
     86 HBA2       80.8935   59.3150   32.6197 dc         1 CLA      0.029400
     87 HBA1       81.8594   59.4121   34.0059 dc         1 CLA      0.029400
     88 HAC2       73.0679   58.1955   44.2563 dc         1 CLA      0.029300
     89 HAC1       72.2225   58.2540   42.7281 dc         1 CLA      0.029300
     90 HAA2       79.0500   58.3386   33.9269 dc         1 CLA      0.028700
     91 HAA1       79.5417   59.8937   34.7056 dc         1 CLA      0.028700
     92 H203       85.3424   57.2746   49.6792 dc         1 CLA      0.065600
     93 H202       84.9149   56.4722   48.1806 dc         1 CLA      0.065600
     94 H201       86.6419   56.6633   48.6240 dc         1 CLA      0.065600
     95 H193       84.4876   59.3627   49.4365 dc         1 CLA      0.065600
     96 H192       84.9885   60.3838   48.1688 dc         1 CLA      0.065600
     97 H191       83.7433   59.0745   47.8589 dc         1 CLA      0.065600
     98 H172       85.9470   59.3552   46.0714 dc         1 CLA      0.027600
     99 H171       85.2068   57.9343   46.1309 dc         1 CLA      0.027600
    100 H162       87.7554   57.1887   46.7592 dc         1 CLA      0.002900
    101 H161       87.9532   58.8169   45.9934 dc         1 CLA      0.002900
    102 H152       86.6693   57.8796   44.1578 dc         1 CLA      0.029100
    103 H151       87.0448   56.2347   44.8337 dc         1 CLA      0.029100
    104 H143       89.4158   55.5375   45.1799 dc         1 CLA      0.063600
    105 H142       90.6525   56.2973   44.3639 dc         1 CLA      0.063600
    106 H141       89.9114   57.0665   45.7710 dc         1 CLA      0.063600
    107 H122       88.5095   55.5246   42.7325 dc         1 CLA      0.032500
    108 H121       89.6834   56.5050   42.0275 dc         1 CLA      0.032500
    109 H112       87.7836   58.2732   41.6388 dc         1 CLA      0.006600
    110 H111       86.7215   56.9229   42.0051 dc         1 CLA      0.006600
    111 H102       88.1698   55.5204   40.2006 dc         1 CLA      0.024100
    112 H101       88.6506   57.0193   39.7054 dc         1 CLA      0.024100
    113 HHD        73.5712   57.0861   40.4805 da         1 CLA      0.174300
    114 HHC        77.6998   60.8968   43.6107 da         1 CLA      0.136800
    115 HHB        81.7885   60.6218   38.5244 da         1 CLA      0.138300
    116 HBD        76.9531   57.2990   34.3708 dc         1 CLA      0.107700
    117 HAB        79.0771   62.7020   43.8392 da         1 CLA      0.155200
    118 H93        85.3911   58.2075   38.2612 dc         1 CLA      0.069500
    119 H92        85.8886   58.8162   39.8927 dc         1 CLA      0.069500
    120 H91        87.0919   58.6158   38.5125 dc         1 CLA      0.069500
    121 H8         85.7520   56.3845   39.7628 dc         1 CLA      0.029300
    122 H72        87.1709   54.9798   38.0357 dc         1 CLA      0.044400
    123 H71        86.9665   56.5226   37.0392 dc         1 CLA      0.044400
    124 H62        84.5321   56.1266   37.2752 dc         1 CLA      0.015600
    125 H61        84.9719   54.4571   38.0656 dc         1 CLA      0.015600
    126 H52        85.9625   53.9046   36.1211 dc         1 CLA      0.033200
    127 H51        85.5571   55.5059   35.3817 dc         1 CLA      0.033200
    128 H43        82.7716   52.2917   35.6716 dc         1 CLA      0.037000
    129 H42        84.4555   52.0795   35.0094 dc         1 CLA      0.037000
    130 H41        84.3554   52.3825   36.7579 dc         1 CLA      0.037000
    131 H3A        81.3530   59.9990   36.0761 dc         1 CLA      0.041100
    132 H2A        80.2852   57.2838   35.9326 dc         1 CLA      0.083100
    133 H2         82.3306   55.1593   36.1188 da         1 CLA      0.180900
    134 H18        86.6920   58.7315   48.5834 dc         1 CLA     -0.003900
    135 H13        89.2115   58.1623   43.8463 dc         1 CLA      0.019700
    136 H12        81.8985   54.7997   33.2519 dc         1 CLA      0.120400
    137 H11        83.5219   55.4784   33.2417 dc         1 CLA      0.120400
    138 C1         69.2094   61.7267   50.8140 Z1         2 LUT      0.509236
    139 C2         69.0273   62.9909   51.7251 Z2         2 LUT     -0.434695
    140 C3         67.6879   63.7103   51.6840 Z3         2 LUT      0.437453
    141 O3         67.9766   65.0567   52.1455 S1         2 LUT     -0.547129
    142 C4         67.2048   63.7960   50.2188 Z4         2 LUT     -0.468603
    143 C5         68.1492   63.2710   49.1009 Z5         2 LUT      0.279246
    144 C6         68.9503   62.2229   49.3753 Z6         2 LUT     -0.305473
    145 C7         69.9677   61.7008   48.3613 Z7         2 LUT      0.069402
    146 C8         70.7652   62.3762   47.5506 Z8         2 LUT     -0.191631
    147 C9         71.5433   61.8287   46.3946 Z9         2 LUT      0.196698
    148 C10        72.4472   62.6680   45.8249 Y1         2 LUT     -0.208611
    149 C11        73.1374   62.4634   44.5276 Y2         2 LUT      0.030784
    150 C12        74.1844   63.3443   44.1860 Y3         2 LUT     -0.220316
    151 C13        75.1437   63.2607   43.1235 Y4         2 LUT      0.215937
    152 C14        76.3235   64.1196   43.2270 Y5         2 LUT     -0.185793
    153 C15        77.3994   64.2495   42.2403 Y6         2 LUT     -0.057835
    154 C16        67.9717   60.9140   51.2179 Y7         2 LUT     -0.405615
    155 C17        70.5030   60.9752   51.0037 Y7         2 LUT     -0.405615
    156 C18        68.0919   64.1068   47.8875 Y9         2 LUT     -0.369639
    157 C19        71.1756   60.4509   45.9025 W1         2 LUT     -0.333362
    158 C20        74.8371   62.6647   41.7808 W2         2 LUT     -0.323439
    159 C21        88.2764   65.9517   35.4385 Z1         2 LUT      0.406104
    160 C22        88.9902   65.4161   34.1899 Z2         2 LUT     -0.404965
    161 C23        89.0099   66.4412   33.0015 Z3         2 LUT      0.391255
    162 O23        89.8717   65.9222   31.9565 S1         2 LUT     -0.528210
    163 C24        87.7102   67.0425   32.7347 W6         2 LUT     -0.258361
    164 C25        86.6673   66.9757   33.6484 Z5         2 LUT      0.133546
    165 C26        86.7709   66.2777   35.0983 W8         2 LUT     -0.147008
    166 C27        86.1043   67.0439   36.2120 Z7         2 LUT      0.023843
    167 C28        84.8934   66.7957   36.7617 Z8         2 LUT     -0.216987
    168 C29        84.2612   67.2604   38.0300 Z9         2 LUT      0.206524
    169 C30        83.1514   66.5527   38.4773 Y1         2 LUT     -0.215556
    170 C31        82.4380   66.7462   39.6881 Y2         2 LUT      0.025142
    171 C32        81.5316   65.7857   40.0938 Y3         2 LUT     -0.212209
    172 C33        80.6151   65.9122   41.2435 Y4         2 LUT      0.240937
    173 C34        79.4477   65.1149   41.3467 Y5         2 LUT     -0.218862
    174 C35        78.4386   65.0703   42.3536 Y6         2 LUT     -0.023547
    175 C36        88.9999   67.2503   35.8489 Y7         2 LUT     -0.393485
    176 C37        88.5025   64.8074   36.4690 Y7         2 LUT     -0.393485
    177 C38        85.3433   67.6456   33.3735 Y9         2 LUT     -0.387526
    178 C39        85.0040   68.2114   38.8744 W1         2 LUT     -0.322618
    179 C40        81.0784   66.7659   42.3519 W2         2 LUT     -0.358472
    180 H403       80.3895   66.7308   43.2125 R7         2 LUT      0.097720
    181 H402       82.0122   66.4045   42.7311 R7         2 LUT      0.097720
    182 H401       81.2480   67.8210   42.1225 R7         2 LUT      0.097720
    183 H393       85.5368   68.9520   38.3984 R4         2 LUT      0.082505
    184 H392       84.3580   68.7465   39.5332 R4         2 LUT      0.082505
    185 H391       85.7413   67.7375   39.5242 R4         2 LUT      0.082505
    186 H383       85.3617   68.2748   32.4469 R1         2 LUT      0.104030
    187 H382       84.6430   66.8278   33.1685 R1         2 LUT      0.104030
    188 H381       84.9363   68.2255   34.2097 R1         2 LUT      0.104030
    189 H373       89.5688   64.7214   36.7335 T4         2 LUT      0.089537
    190 H372       87.9542   65.0239   37.3533 T4         2 LUT      0.089537
    191 H371       88.1764   63.8020   36.1315 T4         2 LUT      0.089537
    192 H363       90.0889   67.1564   35.8595 T4         2 LUT      0.089537
    193 H362       88.7827   68.1044   35.1625 T4         2 LUT      0.089537
    194 H361       88.7931   67.6228   36.8810 T4         2 LUT      0.089537
    195 H222       89.9829   64.9982   34.3346 U2         2 LUT      0.127376
    196 H221       88.4100   64.5712   33.7819 U2         2 LUT      0.127376
    197 H203       74.4156   61.7048   41.8094 R7         2 LUT      0.087068
    198 H202       74.1356   63.2159   41.3566 R7         2 LUT      0.087068
    199 H201       75.6863   62.4857   41.1478 R7         2 LUT      0.087068
    200 H193       70.9704   60.4364   44.8165 R4         2 LUT      0.089716
    201 H192       71.9449   59.6829   46.1547 R4         2 LUT      0.089716
    202 H191       70.2175   60.0197   46.2188 R4         2 LUT      0.089716
    203 H183       68.8292   64.9352   48.0517 R1         2 LUT      0.094572
    204 H182       68.2725   63.4228   47.0615 R1         2 LUT      0.094572
    205 H181       67.1177   64.6429   47.7158 R1         2 LUT      0.094572
    206 H173       71.4096   61.5065   50.5339 T4         2 LUT      0.093752
    207 H172       70.8814   61.0132   52.0390 T4         2 LUT      0.093752
    208 H171       70.5559   59.9947   50.7033 T4         2 LUT      0.093752
    209 H163       67.9867   60.0179   50.7115 T4         2 LUT      0.093752
    210 H162       67.9185   60.7330   52.3562 T4         2 LUT      0.093752
    211 H161       67.0037   61.1488   50.9222 T4         2 LUT      0.093752
    212 HO3        67.2862   65.3449   52.7950 Q1         2 LUT      0.300121
    213 H8         70.7493   63.4625   47.6971 U7         2 LUT      0.080784
    214 H7         69.9270   60.6042   48.2306 U6         2 LUT      0.042190
    215 H42        66.2812   63.2102   50.0475 U5         2 LUT      0.145166
    216 H41        66.9216   64.8388   49.9345 U5         2 LUT      0.145166
    217 H35        78.5358   65.7210   43.2196 T3         2 LUT      0.077919
    218 H34        79.2366   64.5777   40.3545 T2         2 LUT      0.073626
    219 H32        81.3948   64.9552   39.3569 T1         2 LUT      0.092510
    220 H31        82.5194   67.5801   40.2581 U9         2 LUT      0.070048
    221 H30        82.7863   65.7960   37.8707 U8         2 LUT      0.085442
    222 H3         66.9995   63.1723   52.3482 U3         2 LUT     -0.031596
    223 H28        84.2001   66.1589   36.1045 U7         2 LUT      0.084728
    224 H27        86.6686   67.7746   36.7757 U6         2 LUT      0.087291
    225 H26        86.1573   65.3765   34.9459 Q6         2 LUT      0.075325
    226 H24        87.6673   67.5278   31.7253 Q5         2 LUT      0.094482
    227 H23        89.5325   67.3711   33.2064 U3         2 LUT     -0.024869
    228 H22        69.2854   62.5649   52.7493 U2         2 LUT      0.127376
    229 H21        69.7117   63.6533   51.4032 U2         2 LUT      0.127376
    230 H15        77.3180   63.6423   41.3366 T3         2 LUT      0.093200
    231 H14        76.4856   64.8225   44.0385 T2         2 LUT      0.068865
    232 H12        74.4155   64.0836   44.9827 T1         2 LUT      0.095507
    233 H11        72.7997   61.6207   44.0520 U9         2 LUT      0.068930
    234 H10        72.5973   63.5948   46.3188 U8         2 LUT      0.083911
    235 H1         89.3848   65.4956   31.2945 Q1         2 LUT      0.297311
@<TRIPOS>BOND
    1     6     1 1
    2     7     2 1
    3     8     3 1
    4     9     4 1
    5    11     4 1
    6    12     6 1
    7    13     9 1
    8    16     9 1
    9    25     5 1
   10    25    16 1
   11    26    10 1
   12    26    17 1
   13    27    18 1
   14    28    14 1
   15    28    19 1
   16    29    12 1
   17    30    13 1
   18    31    24 1
   19    32     1 1
   20    32    25 1
   21    33    21 1
   22    33    26 1
   23    34    22 1
   24    34    27 1
   25    35    23 1
   26    35    28 1
   27    36    12 1
   28    36    24 1
   29    37    13 1
   30    37    15 1
   31    38    31 1
   32    39    20 1
   33    39    32 1
   34    40     2 1
   35    40    33 1
   36    41     3 1
   37    41    34 1
   38    42     4 1
   39    42    35 1
   40    43    38 1
   41    44     5 1
   42    44    17 1
   43    44    39 1
   44    45    10 1
   45    45    18 1
   46    45    40 1
   47    46    19 1
   48    46    41 1
   49    47    14 1
   50    47    16 1
   51    47    42 1
   52    48    38 1
   53    49    48 1
   54    50    49 1
   55    51    50 1
   56    52    51 1
   57    53    51 1
   58    54    53 1
   59    55    54 1
   60    56    55 1
   61    57    56 1
   62    58    56 1
   63    59    58 1
   64    60    59 1
   65    61    60 1
   66    62    61 1
   67    63    61 1
   68    64    27 1
   69    64    46 1
   70    65     5 1
   71    65    10 1
   72    65    64 1
   73    65    14 1
   74    66    23 1
   75    67    23 1
   76    68    23 1
   77    69    22 1
   78    70    22 1
   79    71    22 1
   80    72    21 1
   81    73    21 1
   82    74    21 1
   83    75    20 1
   84    76    20 1
   85    77    20 1
   86    78    15 1
   87    79    15 1
   88    80    15 1
   89    81     8 1
   90    82     8 1
   91    83     8 1
   92    84     7 1
   93    85     7 1
   94    86     6 1
   95    87     6 1
   96    88     3 1
   97    89     3 1
   98    90     1 1
   99    91     1 1
  100    92    63 1
  101    93    63 1
  102    94    63 1
  103    95    62 1
  104    96    62 1
  105    97    62 1
  106    98    60 1
  107    99    60 1
  108   100    59 1
  109   101    59 1
  110   102    58 1
  111   103    58 1
  112   104    57 1
  113   105    57 1
  114   106    57 1
  115   107    55 1
  116   108    55 1
  117   109    54 1
  118   110    54 1
  119   111    53 1
  120   112    53 1
  121   113    19 1
  122   114    18 1
  123   115    17 1
  124   116     9 1
  125   117     2 1
  126   118    52 1
  127   119    52 1
  128   120    52 1
  129   121    51 1
  130   122    50 1
  131   123    50 1
  132   124    49 1
  133   125    49 1
  134   126    48 1
  135   127    48 1
  136   128    43 1
  137   129    43 1
  138   130    43 1
  139   131    39 1
  140   132    32 1
  141   133    31 1
  142   134    61 1
  143   135    56 1
  144   136    24 1
  145   137    24 1
  146   139   138 1
  147   140   139 1
  148   141   140 1
  149   142   140 1
  150   143   142 1
  151   144   138 1
  152   144   143 1
  153   145   144 1
  154   146   145 1
  155   147   146 1
  156   148   147 1
  157   149   148 1
  158   150   149 1
  159   151   150 1
  160   152   151 1
  161   153   152 1
  162   154   138 1
  163   155   138 1
  164   156   143 1
  165   157   147 1
  166   158   151 1
  167   160   159 1
  168   161   160 1
  169   162   161 1
  170   163   161 1
  171   164   163 1
  172   165   159 1
  173   165   164 1
  174   166   165 1
  175   167   166 1
  176   168   167 1
  177   169   168 1
  178   170   169 1
  179   171   170 1
  180   172   171 1
  181   173   172 1
  182   174   153 1
  183   174   173 1
  184   175   159 1
  185   176   159 1
  186   177   164 1
  187   178   168 1
  188   179   172 1
  189   180   179 1
  190   181   179 1
  191   182   179 1
  192   183   178 1
  193   184   178 1
  194   185   178 1
  195   186   177 1
  196   187   177 1
  197   188   177 1
  198   189   176 1
  199   190   176 1
  200   191   176 1
  201   192   175 1
  202   193   175 1
  203   194   175 1
  204   195   160 1
  205   196   160 1
  206   197   158 1
  207   198   158 1
  208   199   158 1
  209   200   157 1
  210   201   157 1
  211   202   157 1
  212   203   156 1
  213   204   156 1
  214   205   156 1
  215   206   155 1
  216   207   155 1
  217   208   155 1
  218   209   154 1
  219   210   154 1
  220   211   154 1
  221   212   141 1
  222   213   146 1
  223   214   145 1
  224   215   142 1
  225   216   142 1
  226   217   174 1
  227   218   173 1
  228   219   171 1
  229   220   170 1
  230   221   169 1
  231   222   140 1
  232   223   167 1
  233   224   166 1
  234   225   165 1
  235   226   163 1
  236   227   161 1
  237   228   139 1
  238   229   139 1
  239   230   153 1
  240   231   152 1
  241   232   150 1
  242   233   149 1
  243   234   148 1
  244   235   162 1
  245   65    153 1
  246   65    174 1
@<TRIPOS>SUBSTRUCTURE
      1 CLA               1 ****               0 ****  **** 
      2 LUT             138 ****               0 ****  **** 
