@<TRIPOS>MOLECULE
Cpptraj generated mol2 file.
  235   246     2     0     0
SMALL
USER_CHARGES


@<TRIPOS>ATOM
      1 CAA        78.8170   57.2047   35.1307 a2         1 CLA     -0.055900
      2 CAB        78.2297   61.7689   43.5936 c8         1 CLA     -0.148500
      3 CAC        71.7720   57.0009   43.4644 a2         1 CLA     -0.012600
      4 CAD        74.7068   54.4481   36.3589 ck         1 CLA      0.398800
      5 NA         77.7856   57.4847   38.5222 ns         1 CLA     -0.225500
      6 CBA        80.1370   57.2228   34.3551 a2         1 CLA     -0.135000
      7 CBB        79.3426   62.0709   44.2456 c0         1 CLA     -0.395200
      8 CBC        71.9569   55.5321   43.7447 a3         1 CLA     -0.037700
      9 CBD        76.0893   55.0635   36.0352 a1         1 CLA     -0.053900
     10 NB         77.4282   59.2705   40.9974 nm         1 CLA     -0.295700
     11 OBD        74.2126   53.5397   35.7121 o2         1 CLA     -0.494600
     12 CGA        80.7683   55.8483   34.0274 c4         1 CLA      0.827000
     13 CGD        77.0594   53.9356   35.6559 c4         1 CLA      0.655300
     14 ND         74.9900   56.5807   39.1307 nm         1 CLA     -0.291600
     15 CED        77.9185   51.7797   36.1295 a3         1 CLA      0.005400
     16 CHA        76.4520   56.0116   37.2048 cs         1 CLA     -0.123800
     17 CHB        79.4346   58.9513   39.5501 aa         1 CLA     -0.291900
     18 CHC        75.9986   59.7087   42.9278 aa         1 CLA     -0.090400
     19 CHD        73.1264   56.4931   40.7591 aa         1 CLA     -0.052000
     20 CMA        81.1760   56.7247   37.9021 a3         1 CLA     -0.230700
     21 CMB        80.6044   61.1934   41.4062 a3         1 CLA     -0.180800
     22 CMC        73.6358   59.1034   44.9837 a3         1 CLA     -0.134000
     23 CMD        71.9062   54.5295   38.5317 a3         1 CLA     -0.141100
     24 C1         82.3759   54.2055   34.8834 a2         1 CLA      0.023000
     25 C1A        77.6793   56.6789   37.4159 ac         1 CLA     -0.015100
     26 C1B        78.7468   59.5520   40.6193 cr         1 CLA      0.054700
     27 C1C        74.9201   58.9101   42.7037 cn         1 CLA     -0.005600
     28 C1D        73.7470   56.0549   39.5588 ap         1 CLA     -0.047300
     29 O1A        80.5214   55.1355   33.0866 o2         1 CLA     -0.610800
     30 O1D        77.9144   54.0492   34.7437 o2         1 CLA     -0.558200
     31 C2         81.5514   53.4265   35.8633 c8         1 CLA     -0.325100
     32 C2A        78.9166   56.6376   36.5423 a1         1 CLA      0.098600
     33 C2B        79.2562   60.5690   41.5176 cb         1 CLA      0.088500
     34 C2C        73.7675   58.6661   43.6014 cb         1 CLA      0.053700
     35 C2D        73.2577   55.2213   38.5766 cb         1 CLA      0.058900
     36 O2A        81.7974   55.5517   34.9591 o1         1 CLA     -0.437200
     37 O2D        76.8787   52.7956   36.4320 o1         1 CLA     -0.357600
     38 C3         82.0939   52.7084   36.8351 c5         1 CLA      0.031200
     39 C3A        79.9232   57.4583   37.4466 a1         1 CLA      0.166800
     40 C3B        78.2535   60.8430   42.4516 cb         1 CLA      0.035000
     41 C3C        73.0339   57.6595   42.9719 cb         1 CLA     -0.089900
     42 C3D        74.2402   55.1116   37.5887 cb         1 CLA     -0.035900
     43 C4         82.3687   51.2523   36.7147 a3         1 CLA     -0.053300
     44 C4A        78.9671   58.0008   38.6443 ac         1 CLA      0.001800
     45 C4B        77.1715   59.9310   42.1612 cn         1 CLA     -0.020900
     46 C4C        73.6306   57.3535   41.7422 cr         1 CLA     -0.044400
     47 C4D        75.3034   55.9700   37.9775 c6         1 CLA     -0.046000
     48 C5         82.4791   53.3370   38.1660 a2         1 CLA     -0.070400
     49 C6         83.5762   54.3627   38.1265 a2         1 CLA      0.043900
     50 C7         83.8349   55.0607   39.4321 a2         1 CLA     -0.150000
     51 C8         84.6031   56.3890   39.2002 a1         1 CLA      0.064200
     52 C9         86.0237   56.3430   38.5350 a3         1 CLA     -0.259300
     53 C10        84.8415   57.0214   40.6093 a2         1 CLA     -0.071900
     54 C11        83.5770   57.2935   41.5081 a2         1 CLA      0.014500
     55 C12        83.8064   58.4644   42.5014 a2         1 CLA     -0.112100
     56 C13        84.9606   58.3849   43.5372 a1         1 CLA      0.089200
     57 C14        84.6937   57.1670   44.4911 a3         1 CLA     -0.239100
     58 C15        85.1709   59.6965   44.4391 a2         1 CLA     -0.102200
     59 C16        83.9062   60.3318   45.0352 a2         1 CLA      0.023900
     60 C17        84.2525   61.5149   45.9573 a2         1 CLA     -0.105700
     61 C18        83.0639   62.4161   46.5045 a1         1 CLA      0.206800
     62 C19        81.7735   61.6077   46.9176 a3         1 CLA     -0.280100
     63 C20        83.5038   63.3485   47.6117 a3         1 CLA     -0.280100
     64 NC         74.7489   58.1292   41.4972 nx         1 CLA     -0.309200
     65 MG         76.2556   58.0003   39.8917 mg         1 CLA      0.895000
     66 HMD3       72.0684   53.5133   38.0133 dc         1 CLA      0.064300
     67 HMD2       71.5255   54.2807   39.4666 dc         1 CLA      0.064300
     68 HMD1       71.2041   55.0733   37.9387 dc         1 CLA      0.064300
     69 HMC3       72.9243   58.6864   45.6563 dc         1 CLA      0.052100
     70 HMC2       74.5619   58.7796   45.3177 dc         1 CLA      0.052100
     71 HMC1       73.4418   60.1584   44.9756 dc         1 CLA      0.052100
     72 HMB3       80.5465   62.2082   41.6220 dc         1 CLA      0.063600
     73 HMB2       81.2728   60.5811   41.9923 dc         1 CLA      0.063600
     74 HMB1       81.0103   61.1795   40.4179 dc         1 CLA      0.063600
     75 HMA3       80.8717   55.8501   38.4317 dc         1 CLA      0.058300
     76 HMA2       81.8778   56.6511   37.1230 dc         1 CLA      0.058300
     77 HMA1       81.6322   57.3622   38.7565 dc         1 CLA      0.058300
     78 HED3       78.1600   51.6247   35.0987 dc         1 CLA      0.079300
     79 HED2       78.7868   51.9273   36.8293 dc         1 CLA      0.079300
     80 HED1       77.5017   50.8346   36.4128 dc         1 CLA      0.079300
     81 HBC3       70.9898   54.9913   43.9032 dc         1 CLA      0.016300
     82 HBC2       72.5350   55.0052   43.0026 dc         1 CLA      0.016300
     83 HBC1       72.6400   55.5210   44.5711 dc         1 CLA      0.016300
     84 HBB2       79.3790   62.7453   45.0478 da         1 CLA      0.183000
     85 HBB1       80.2825   61.6581   43.9468 da         1 CLA      0.183000
     86 HBA2       79.9054   57.7621   33.3881 dc         1 CLA      0.029400
     87 HBA1       80.9251   57.7349   34.7858 dc         1 CLA      0.029400
     88 HAC2       71.4047   57.6422   44.2776 dc         1 CLA      0.029300
     89 HAC1       70.9717   56.9393   42.7925 dc         1 CLA      0.029300
     90 HAA2       78.0744   56.6734   34.5913 dc         1 CLA      0.028700
     91 HAA1       78.4092   58.2248   35.2319 dc         1 CLA      0.028700
     92 H203       84.0763   62.7352   48.3331 dc         1 CLA      0.065600
     93 H202       84.1572   64.1382   47.3615 dc         1 CLA      0.065600
     94 H201       82.6633   63.7792   48.0185 dc         1 CLA      0.065600
     95 H193       81.4997   60.9786   46.0671 dc         1 CLA      0.065600
     96 H192       81.8989   60.9392   47.6765 dc         1 CLA      0.065600
     97 H191       80.9633   62.3475   47.1288 dc         1 CLA      0.065600
     98 H172       84.8233   61.0584   46.7595 dc         1 CLA      0.027600
     99 H171       85.0205   62.1513   45.5093 dc         1 CLA      0.027600
    100 H162       83.2568   60.6797   44.2151 dc         1 CLA      0.002900
    101 H161       83.2641   59.6861   45.6256 dc         1 CLA      0.002900
    102 H152       85.8436   59.3251   45.1886 dc         1 CLA      0.029100
    103 H151       85.6938   60.4373   43.7874 dc         1 CLA      0.029100
    104 H143       85.3496   57.0408   45.3289 dc         1 CLA      0.063600
    105 H142       83.6696   57.2260   44.9365 dc         1 CLA      0.063600
    106 H141       84.7001   56.1719   43.9688 dc         1 CLA      0.063600
    107 H122       84.0067   59.3391   41.8855 dc         1 CLA      0.032500
    108 H121       82.8067   58.8217   42.8589 dc         1 CLA      0.032500
    109 H112       82.8348   57.5190   40.7601 dc         1 CLA      0.006600
    110 H111       83.2722   56.4044   42.0587 dc         1 CLA      0.006600
    111 H102       85.6837   56.4029   41.0295 dc         1 CLA      0.024100
    112 H101       85.3785   57.9402   40.4126 dc         1 CLA      0.024100
    113 HHD        72.0782   56.1112   40.9493 da         1 CLA      0.174300
    114 HHC        75.9828   60.2841   43.8527 da         1 CLA      0.136800
    115 HHB        80.3949   59.3747   39.4106 da         1 CLA      0.138300
    116 HBD        75.9722   55.7875   35.1545 dc         1 CLA      0.107700
    117 HAB        77.3094   62.2420   43.9272 da         1 CLA      0.155200
    118 H93        85.8227   55.9226   37.5534 dc         1 CLA      0.069500
    119 H92        86.3802   57.3419   38.2908 dc         1 CLA      0.069500
    120 H91        86.8667   55.8966   39.0257 dc         1 CLA      0.069500
    121 H8         83.9835   57.0283   38.5633 dc         1 CLA      0.029300
    122 H72        82.8839   55.2844   39.9514 dc         1 CLA      0.044400
    123 H71        84.3756   54.4681   40.1132 dc         1 CLA      0.044400
    124 H62        84.4594   53.7679   38.1176 dc         1 CLA      0.015600
    125 H61        83.4476   54.9893   37.2437 dc         1 CLA      0.015600
    126 H52        81.6187   53.7990   38.5186 dc         1 CLA      0.033200
    127 H51        82.8066   52.5326   38.8161 dc         1 CLA      0.033200
    128 H43        83.4103   51.1272   37.0181 dc         1 CLA      0.037000
    129 H42        81.7066   50.7004   37.4445 dc         1 CLA      0.037000
    130 H41        82.1833   50.9011   35.7239 dc         1 CLA      0.037000
    131 H3A        80.0951   58.3563   36.8592 dc         1 CLA      0.041100
    132 H2A        79.3198   55.6211   36.6738 dc         1 CLA      0.083100
    133 H2         80.5143   53.4356   35.8040 da         1 CLA      0.180900
    134 H18        82.8132   63.0631   45.6684 dc         1 CLA     -0.003900
    135 H13        85.8798   58.2079   43.1235 dc         1 CLA      0.019700
    136 H12        82.2715   53.6904   33.9832 dc         1 CLA      0.120400
    137 H11        83.4220   54.2597   35.1791 dc         1 CLA      0.120400
    138 C1         67.9956   61.3630   49.8666 Z1         2 LUT      0.509236
    139 C2         66.6882   60.8831   50.4077 Z2         2 LUT     -0.434695
    140 C3         65.6561   61.9828   50.8624 Z3         2 LUT      0.437453
    141 O3         65.8025   62.5703   52.1702 S1         2 LUT     -0.547129
    142 C4         65.8182   63.1950   49.7995 Z4         2 LUT     -0.468603
    143 C5         66.6038   63.0753   48.5720 Z5         2 LUT      0.279246
    144 C6         67.6947   62.2592   48.5580 Z6         2 LUT     -0.305473
    145 C7         68.1225   61.6981   47.2658 Z7         2 LUT      0.069402
    146 C8         69.1953   62.0961   46.5119 Z8         2 LUT     -0.191631
    147 C9         69.8213   61.4477   45.3696 Z9         2 LUT      0.196698
    148 C10        70.8559   62.0272   44.7684 Y1         2 LUT     -0.208611
    149 C11        71.4179   61.6909   43.4868 Y2         2 LUT      0.030784
    150 C12        72.4828   62.5198   43.1267 Y3         2 LUT     -0.220316
    151 C13        73.4230   62.2051   42.0591 Y4         2 LUT      0.215937
    152 C14        74.4622   63.0880   41.8932 Y5         2 LUT     -0.185793
    153 C15        75.5617   63.0326   41.0576 Y6         2 LUT     -0.057835
    154 C16        68.9124   60.1400   49.7273 Y7         2 LUT     -0.405615
    155 C17        68.5613   62.2070   50.9973 Y7         2 LUT     -0.405615
    156 C18        66.0402   63.7921   47.3564 Y9         2 LUT     -0.369639
    157 C19        69.1882   60.1660   44.8269 W1         2 LUT     -0.333362
    158 C20        73.1312   61.0847   41.0767 W2         2 LUT     -0.323439
    159 C21        87.6864   64.1717   35.5470 Z1         2 LUT      0.406104
    160 C22        88.3320   63.6818   34.2106 Z2         2 LUT     -0.404965
    161 C23        88.4628   64.8518   33.2199 Z3         2 LUT      0.391255
    162 O23        89.3517   64.3103   32.2058 S1         2 LUT     -0.528210
    163 C24        87.1163   65.3875   32.9801 W6         2 LUT     -0.258361
    164 C25        86.0547   65.3424   33.8132 Z5         2 LUT      0.133546
    165 C26        86.1041   64.6280   35.2000 W8         2 LUT     -0.147008
    166 C27        85.3290   65.2792   36.3396 Z7         2 LUT      0.023843
    167 C28        84.0613   64.8306   36.6903 Z8         2 LUT     -0.216987
    168 C29        83.2974   65.2392   37.8743 Z9         2 LUT      0.206524
    169 C30        82.0861   64.5833   38.1180 Y1         2 LUT     -0.215556
    170 C31        81.1816   64.8317   39.1520 Y2         2 LUT      0.025142
    171 C32        79.9924   64.1706   39.3866 Y3         2 LUT     -0.212209
    172 C33        78.9850   64.4334   40.4306 Y4         2 LUT      0.240937
    173 C34        77.8759   63.7426   40.3969 Y5         2 LUT     -0.218862
    174 C35        76.6945   63.8208   41.2029 Y6         2 LUT     -0.023547
    175 C36        88.4823   65.3253   36.2164 Y7         2 LUT     -0.393485
    176 C37        87.7779   62.9086   36.5162 Y7         2 LUT     -0.393485
    177 C38        84.6921   66.1160   33.4519 Y9         2 LUT     -0.387526
    178 C39        83.9772   66.4246   38.5896 W1         2 LUT     -0.322618
    179 C40        79.2971   65.5693   41.3728 W2         2 LUT     -0.358472
    180 H403       79.5409   66.4517   40.7660 R7         2 LUT      0.097720
    181 H402       78.4537   65.7565   42.0482 R7         2 LUT      0.097720
    182 H401       80.2013   65.3060   41.9362 R7         2 LUT      0.097720
    183 H393       84.2469   67.2542   37.9878 R4         2 LUT      0.082505
    184 H392       83.3854   66.8299   39.4313 R4         2 LUT      0.082505
    185 H391       84.9295   66.1707   39.0265 R4         2 LUT      0.082505
    186 H383       84.9219   66.7787   32.5917 R1         2 LUT      0.104030
    187 H382       83.8801   65.4152   33.0874 R1         2 LUT      0.104030
    188 H381       84.3679   66.6981   34.3231 R1         2 LUT      0.104030
    189 H373       88.8035   62.4646   36.5923 T4         2 LUT      0.089537
    190 H372       87.3997   63.1086   37.5054 T4         2 LUT      0.089537
    191 H371       87.1370   62.1419   36.1174 T4         2 LUT      0.089537
    192 H363       89.5533   65.1899   36.0958 T4         2 LUT      0.089537
    193 H362       88.1150   66.2313   35.6119 T4         2 LUT      0.089537
    194 H361       88.1594   65.5480   37.2373 T4         2 LUT      0.089537
    195 H222       89.3137   63.2830   34.3898 U2         2 LUT      0.127376
    196 H221       87.6446   62.9127   33.7955 U2         2 LUT      0.127376
    197 H203       73.7662   60.8600   40.2380 R7         2 LUT      0.087068
    198 H202       72.8636   60.1463   41.5121 R7         2 LUT      0.087068
    199 H201       72.2185   61.4168   40.4775 R7         2 LUT      0.087068
    200 H193       68.1104   60.1724   44.5382 R4         2 LUT      0.089716
    201 H192       69.6463   59.7978   43.8912 R4         2 LUT      0.089716
    202 H191       69.2369   59.2767   45.5480 R4         2 LUT      0.089716
    203 H183       64.9663   64.1575   47.5161 R1         2 LUT      0.094572
    204 H182       66.6875   64.6657   46.9945 R1         2 LUT      0.094572
    205 H181       65.9980   63.0742   46.4614 R1         2 LUT      0.094572
    206 H173       67.9488   63.0972   51.2807 T4         2 LUT      0.093752
    207 H172       68.7826   61.5554   51.8662 T4         2 LUT      0.093752
    208 H171       69.5361   62.6200   50.7589 T4         2 LUT      0.093752
    209 H163       69.2184   59.6806   50.7049 T4         2 LUT      0.093752
    210 H162       68.4375   59.3782   49.1651 T4         2 LUT      0.093752
    211 H161       69.7800   60.5121   49.2321 T4         2 LUT      0.093752
    212 HO3        65.4215   61.9571   52.8455 Q1         2 LUT      0.300121
    213 H8         69.8457   62.9362   46.8716 U7         2 LUT      0.080784
    214 H7         67.5174   60.8647   46.8691 U6         2 LUT      0.042190
    215 H42        64.7883   63.3134   49.4483 U5         2 LUT      0.145166
    216 H41        66.1726   64.1164   50.2958 U5         2 LUT      0.145166
    217 H35        76.6786   64.5584   41.9980 T3         2 LUT      0.077919
    218 H34        77.7589   62.9454   39.6965 T2         2 LUT      0.073626
    219 H32        79.7598   63.3789   38.6397 T1         2 LUT      0.092510
    220 H31        81.3375   65.6483   39.8013 U9         2 LUT      0.070048
    221 H30        81.9104   63.7646   37.3821 U8         2 LUT      0.085442
    222 H3         64.5694   61.5980   50.8602 U3         2 LUT     -0.031596
    223 H28        83.4912   64.2596   35.9388 U7         2 LUT      0.084728
    224 H27        85.8057   65.9422   37.0775 U6         2 LUT      0.087291
    225 H26        85.7111   63.6400   35.0324 Q6         2 LUT      0.075325
    226 H24        86.9593   65.9168   32.0653 Q5         2 LUT      0.094482
    227 H23        89.1097   65.6122   33.7320 U3         2 LUT     -0.024869
    228 H22        66.1322   60.3190   49.5832 U2         2 LUT      0.127376
    229 H21        66.8513   60.1557   51.2236 U2         2 LUT      0.127376
    230 H15        75.6190   62.3327   40.2867 T3         2 LUT      0.093200
    231 H14        74.4619   63.9655   42.5833 T2         2 LUT      0.068865
    232 H12        72.8342   63.3862   43.6733 T1         2 LUT      0.095507
    233 H11        71.0990   60.8622   42.8963 U9         2 LUT      0.068930
    234 H10        71.2527   62.9396   45.1742 U8         2 LUT      0.083911
    235 H1         88.9087   64.0792   31.4103 Q1         2 LUT      0.297311
@<TRIPOS>BOND
    1     6     1 1
    2     7     2 1
    3     8     3 1
    4     9     4 1
    5    11     4 1
    6    12     6 1
    7    13     9 1
    8    16     9 1
    9    25     5 1
   10    25    16 1
   11    26    10 1
   12    26    17 1
   13    27    18 1
   14    28    14 1
   15    28    19 1
   16    29    12 1
   17    30    13 1
   18    31    24 1
   19    32     1 1
   20    32    25 1
   21    33    21 1
   22    33    26 1
   23    34    22 1
   24    34    27 1
   25    35    23 1
   26    35    28 1
   27    36    12 1
   28    36    24 1
   29    37    13 1
   30    37    15 1
   31    38    31 1
   32    39    20 1
   33    39    32 1
   34    40     2 1
   35    40    33 1
   36    41     3 1
   37    41    34 1
   38    42     4 1
   39    42    35 1
   40    43    38 1
   41    44     5 1
   42    44    17 1
   43    44    39 1
   44    45    10 1
   45    45    18 1
   46    45    40 1
   47    46    19 1
   48    46    41 1
   49    47    14 1
   50    47    16 1
   51    47    42 1
   52    48    38 1
   53    49    48 1
   54    50    49 1
   55    51    50 1
   56    52    51 1
   57    53    51 1
   58    54    53 1
   59    55    54 1
   60    56    55 1
   61    57    56 1
   62    58    56 1
   63    59    58 1
   64    60    59 1
   65    61    60 1
   66    62    61 1
   67    63    61 1
   68    64    27 1
   69    64    46 1
   70    65     5 1
   71    65    10 1
   72    65    64 1
   73    65    14 1
   74    66    23 1
   75    67    23 1
   76    68    23 1
   77    69    22 1
   78    70    22 1
   79    71    22 1
   80    72    21 1
   81    73    21 1
   82    74    21 1
   83    75    20 1
   84    76    20 1
   85    77    20 1
   86    78    15 1
   87    79    15 1
   88    80    15 1
   89    81     8 1
   90    82     8 1
   91    83     8 1
   92    84     7 1
   93    85     7 1
   94    86     6 1
   95    87     6 1
   96    88     3 1
   97    89     3 1
   98    90     1 1
   99    91     1 1
  100    92    63 1
  101    93    63 1
  102    94    63 1
  103    95    62 1
  104    96    62 1
  105    97    62 1
  106    98    60 1
  107    99    60 1
  108   100    59 1
  109   101    59 1
  110   102    58 1
  111   103    58 1
  112   104    57 1
  113   105    57 1
  114   106    57 1
  115   107    55 1
  116   108    55 1
  117   109    54 1
  118   110    54 1
  119   111    53 1
  120   112    53 1
  121   113    19 1
  122   114    18 1
  123   115    17 1
  124   116     9 1
  125   117     2 1
  126   118    52 1
  127   119    52 1
  128   120    52 1
  129   121    51 1
  130   122    50 1
  131   123    50 1
  132   124    49 1
  133   125    49 1
  134   126    48 1
  135   127    48 1
  136   128    43 1
  137   129    43 1
  138   130    43 1
  139   131    39 1
  140   132    32 1
  141   133    31 1
  142   134    61 1
  143   135    56 1
  144   136    24 1
  145   137    24 1
  146   139   138 1
  147   140   139 1
  148   141   140 1
  149   142   140 1
  150   143   142 1
  151   144   138 1
  152   144   143 1
  153   145   144 1
  154   146   145 1
  155   147   146 1
  156   148   147 1
  157   149   148 1
  158   150   149 1
  159   151   150 1
  160   152   151 1
  161   153   152 1
  162   154   138 1
  163   155   138 1
  164   156   143 1
  165   157   147 1
  166   158   151 1
  167   160   159 1
  168   161   160 1
  169   162   161 1
  170   163   161 1
  171   164   163 1
  172   165   159 1
  173   165   164 1
  174   166   165 1
  175   167   166 1
  176   168   167 1
  177   169   168 1
  178   170   169 1
  179   171   170 1
  180   172   171 1
  181   173   172 1
  182   174   153 1
  183   174   173 1
  184   175   159 1
  185   176   159 1
  186   177   164 1
  187   178   168 1
  188   179   172 1
  189   180   179 1
  190   181   179 1
  191   182   179 1
  192   183   178 1
  193   184   178 1
  194   185   178 1
  195   186   177 1
  196   187   177 1
  197   188   177 1
  198   189   176 1
  199   190   176 1
  200   191   176 1
  201   192   175 1
  202   193   175 1
  203   194   175 1
  204   195   160 1
  205   196   160 1
  206   197   158 1
  207   198   158 1
  208   199   158 1
  209   200   157 1
  210   201   157 1
  211   202   157 1
  212   203   156 1
  213   204   156 1
  214   205   156 1
  215   206   155 1
  216   207   155 1
  217   208   155 1
  218   209   154 1
  219   210   154 1
  220   211   154 1
  221   212   141 1
  222   213   146 1
  223   214   145 1
  224   215   142 1
  225   216   142 1
  226   217   174 1
  227   218   173 1
  228   219   171 1
  229   220   170 1
  230   221   169 1
  231   222   140 1
  232   223   167 1
  233   224   166 1
  234   225   165 1
  235   226   163 1
  236   227   161 1
  237   228   139 1
  238   229   139 1
  239   230   153 1
  240   231   152 1
  241   232   150 1
  242   233   149 1
  243   234   148 1
  244   235   162 1
  245   65    153 1
  246   65    174 1
@<TRIPOS>SUBSTRUCTURE
      1 CLA               1 ****               0 ****  **** 
      2 LUT             138 ****               0 ****  **** 
