@<TRIPOS>MOLECULE
Cpptraj generated mol2 file.
  235   246     2     0     0
SMALL
USER_CHARGES


@<TRIPOS>ATOM
      1 CAA        79.3129   59.3123   34.4062 a2         1 CLA     -0.055900
      2 CAB        79.7050   62.1996   43.7852 c8         1 CLA     -0.148500
      3 CAC        72.5369   58.5973   42.9380 a2         1 CLA     -0.012600
      4 CAD        74.8915   57.1606   35.2997 ck         1 CLA      0.398800
      5 NA         78.4368   59.2441   37.9563 ns         1 CLA     -0.225500
      6 CBA        80.5044   59.1653   33.5075 a2         1 CLA     -0.135000
      7 CBB        80.8673   61.9079   44.4635 c0         1 CLA     -0.395200
      8 CBC        72.3249   57.0943   42.6816 a3         1 CLA     -0.037700
      9 CBD        76.4114   57.4877   35.0960 a1         1 CLA     -0.053900
     10 NB         78.4393   60.5273   40.7366 nm         1 CLA     -0.295700
     11 OBD        74.1600   56.7164   34.4719 o2         1 CLA     -0.494600
     12 CGA        80.8782   57.7431   33.1317 c4         1 CLA      0.827000
     13 CGD        77.0728   56.2508   34.5735 c4         1 CLA      0.655300
     14 ND         75.5841   58.5500   38.5091 nm         1 CLA     -0.291600
     15 CED        77.2228   53.7974   35.0740 a3         1 CLA      0.005400
     16 CHA        76.8947   58.1302   36.3734 cs         1 CLA     -0.123800
     17 CHB        80.2876   60.3570   39.0012 aa         1 CLA     -0.291900
     18 CHC        77.2173   60.4989   42.8210 aa         1 CLA     -0.090400
     19 CHD        73.7519   58.6015   40.0320 aa         1 CLA     -0.052000
     20 CMA        81.5987   58.1660   37.2633 a3         1 CLA     -0.230700
     21 CMB        81.7986   62.1118   41.1930 a3         1 CLA     -0.180800
     22 CMC        74.9029   59.7744   44.9245 a3         1 CLA     -0.134000
     23 CMD        72.0787   57.3791   37.4232 a3         1 CLA     -0.141100
     24 C1         81.8412   55.7283   34.0823 a2         1 CLA      0.023000
     25 C1A        78.1542   58.7029   36.7067 ac         1 CLA     -0.015100
     26 C1B        79.7768   60.7885   40.2974 cr         1 CLA      0.054700
     27 C1C        76.0607   59.8154   42.4500 cn         1 CLA     -0.005600
     28 C1D        74.2132   58.3235   38.7668 ap         1 CLA     -0.047300
     29 O1A        80.6059   57.1148   32.1389 o2         1 CLA     -0.610800
     30 O1D        77.9053   56.2251   33.6476 o2         1 CLA     -0.558200
     31 C2         82.3858   55.1776   35.3524 c8         1 CLA     -0.325100
     32 C2A        79.4032   58.6596   35.8398 a1         1 CLA      0.098600
     33 C2B        80.4227   61.5439   41.3104 cb         1 CLA      0.088500
     34 C2C        74.9533   59.5788   43.3695 cb         1 CLA      0.053700
     35 C2D        73.5014   57.7610   37.6196 cb         1 CLA      0.058900
     36 O2A        81.4971   57.1871   34.2326 o1         1 CLA     -0.437200
     37 O2D        76.7754   55.1833   35.3674 o1         1 CLA     -0.357600
     38 C3         82.9544   53.9352   35.5054 c5         1 CLA      0.031200
     39 C3A        80.5064   59.1744   36.7930 a1         1 CLA      0.166800
     40 C3B        79.5215   61.5733   42.4580 cb         1 CLA      0.035000
     41 C3C        73.8905   59.0848   42.5830 cb         1 CLA     -0.089900
     42 C3D        74.5726   57.6023   36.6681 cb         1 CLA     -0.035900
     43 C4         82.1426   52.8011   35.8681 a3         1 CLA     -0.053300
     44 C4A        79.6913   59.6615   37.9911 ac         1 CLA      0.001800
     45 C4B        78.3154   60.8843   42.0341 cn         1 CLA     -0.020900
     46 C4C        74.3929   59.1436   41.1995 cr         1 CLA     -0.044400
     47 C4D        75.7702   58.1600   37.2323 c6         1 CLA     -0.046000
     48 C5         84.4520   53.7131   35.3995 a2         1 CLA     -0.070400
     49 C6         85.3180   54.7739   36.0438 a2         1 CLA      0.043900
     50 C7         85.1693   54.7892   37.5473 a2         1 CLA     -0.150000
     51 C8         86.0576   55.8268   38.3108 a1         1 CLA      0.064200
     52 C9         87.5727   55.7685   38.0082 a3         1 CLA     -0.259300
     53 C10        85.8233   55.9988   39.8391 a2         1 CLA     -0.071900
     54 C11        84.3728   56.3212   40.2140 a2         1 CLA      0.014500
     55 C12        84.2905   56.6009   41.6885 a2         1 CLA     -0.112100
     56 C13        82.8264   56.8507   42.2058 a1         1 CLA      0.089200
     57 C14        82.1593   58.1841   41.6839 a3         1 CLA     -0.239100
     58 C15        82.5260   56.7022   43.7742 a2         1 CLA     -0.102200
     59 C16        83.4186   57.3835   44.6489 a2         1 CLA      0.023900
     60 C17        83.1187   57.0966   46.1359 a2         1 CLA     -0.105700
     61 C18        83.5186   58.1119   47.1957 a1         1 CLA      0.206800
     62 C19        83.1209   57.6300   48.5554 a3         1 CLA     -0.280100
     63 C20        84.9630   58.4628   47.1893 a3         1 CLA     -0.280100
     64 NC         75.7334   59.4616   41.2066 nx         1 CLA     -0.309200
     65 MG         77.0558   59.5654   39.5374 mg         1 CLA      0.895000
     66 HMD3       72.0392   57.3612   36.3247 dc         1 CLA      0.064300
     67 HMD2       71.8142   56.4337   37.8377 dc         1 CLA      0.064300
     68 HMD1       71.4495   58.2904   37.6619 dc         1 CLA      0.064300
     69 HMC3       74.0839   59.1726   45.3586 dc         1 CLA      0.052100
     70 HMC2       75.9256   59.5773   45.3017 dc         1 CLA      0.052100
     71 HMC1       74.5064   60.8094   45.0754 dc         1 CLA      0.052100
     72 HMB3       82.6049   61.4196   41.2802 dc         1 CLA      0.063600
     73 HMB2       81.8853   62.7405   40.3178 dc         1 CLA      0.063600
     74 HMB1       81.9205   62.8313   42.0196 dc         1 CLA      0.063600
     75 HMA3       82.0580   58.5370   38.1669 dc         1 CLA      0.058300
     76 HMA2       81.0924   57.2407   37.4974 dc         1 CLA      0.058300
     77 HMA1       82.4012   57.9370   36.5363 dc         1 CLA      0.058300
     78 HED3       78.2724   53.5966   35.2889 dc         1 CLA      0.079300
     79 HED2       76.6051   53.0106   35.5816 dc         1 CLA      0.079300
     80 HED1       77.0582   53.6869   34.0209 dc         1 CLA      0.079300
     81 HBC3       72.4623   56.7427   41.5698 dc         1 CLA      0.016300
     82 HBC2       73.1709   56.5541   43.0975 dc         1 CLA      0.016300
     83 HBC1       71.3023   56.8440   43.0823 dc         1 CLA      0.016300
     84 HBB2       81.0110   62.2223   45.5265 da         1 CLA      0.183000
     85 HBB1       81.6678   61.3379   43.9578 da         1 CLA      0.183000
     86 HBA2       80.2919   59.7694   32.6108 dc         1 CLA      0.029400
     87 HBA1       81.3512   59.6587   33.8619 dc         1 CLA      0.029400
     88 HAC2       72.2824   58.7731   44.0490 dc         1 CLA      0.029300
     89 HAC1       71.8674   59.1965   42.3349 dc         1 CLA      0.029300
     90 HAA2       78.4967   58.7703   33.9231 dc         1 CLA      0.028700
     91 HAA1       79.0422   60.4096   34.3343 dc         1 CLA      0.028700
     92 H203       85.1472   58.9174   46.2047 dc         1 CLA      0.065600
     93 H202       85.0438   59.1642   48.0405 dc         1 CLA      0.065600
     94 H201       85.6504   57.6223   47.2632 dc         1 CLA      0.065600
     95 H193       83.3854   58.3143   49.3696 dc         1 CLA      0.065600
     96 H192       82.0080   57.5350   48.5326 dc         1 CLA      0.065600
     97 H191       83.5879   56.6482   48.7680 dc         1 CLA      0.065600
     98 H172       81.9838   57.0413   46.1798 dc         1 CLA      0.027600
     99 H171       83.5540   56.1030   46.4815 dc         1 CLA      0.027600
    100 H162       84.4758   57.1676   44.3747 dc         1 CLA      0.002900
    101 H161       83.3065   58.4231   44.4662 dc         1 CLA      0.002900
    102 H152       81.5276   57.0755   43.8587 dc         1 CLA      0.029100
    103 H151       82.4745   55.6491   43.8994 dc         1 CLA      0.029100
    104 H143       81.1428   58.3347   41.9305 dc         1 CLA      0.063600
    105 H142       82.6682   59.1037   41.9346 dc         1 CLA      0.063600
    106 H141       82.0386   58.0655   40.5668 dc         1 CLA      0.063600
    107 H122       84.3988   55.6056   42.1906 dc         1 CLA      0.032500
    108 H121       84.9633   57.3961   42.1041 dc         1 CLA      0.032500
    109 H112       84.1550   57.2543   39.6549 dc         1 CLA      0.006600
    110 H111       83.6879   55.4894   39.9401 dc         1 CLA      0.006600
    111 H102       86.2781   55.1525   40.3437 dc         1 CLA      0.024100
    112 H101       86.3901   56.8226   40.3165 dc         1 CLA      0.024100
    113 HHD        72.6944   58.4584   40.1313 da         1 CLA      0.174300
    114 HHC        77.1715   60.9430   43.8135 da         1 CLA      0.136800
    115 HHB        81.3576   60.5850   38.7341 da         1 CLA      0.138300
    116 HBD        76.4854   58.2186   34.3123 dc         1 CLA      0.107700
    117 HAB        78.8992   62.5362   44.4113 da         1 CLA      0.155200
    118 H93        87.9630   54.8026   38.3118 dc         1 CLA      0.069500
    119 H92        87.7843   55.9948   36.9688 dc         1 CLA      0.069500
    120 H91        88.0942   56.4564   38.7043 dc         1 CLA      0.069500
    121 H8         85.7453   56.7521   37.9121 dc         1 CLA      0.029300
    122 H72        84.1023   55.0425   37.7689 dc         1 CLA      0.044400
    123 H71        85.4849   53.8992   38.0061 dc         1 CLA      0.044400
    124 H62        86.2840   54.4400   35.7315 dc         1 CLA      0.015600
    125 H61        85.1343   55.8231   35.7913 dc         1 CLA      0.015600
    126 H52        84.7334   52.8246   36.0117 dc         1 CLA      0.033200
    127 H51        84.8562   53.5251   34.4076 dc         1 CLA      0.033200
    128 H43        81.1616   53.0617   35.7588 dc         1 CLA      0.037000
    129 H42        82.4298   51.9824   35.2072 dc         1 CLA      0.037000
    130 H41        82.3291   52.5142   36.8795 dc         1 CLA      0.037000
    131 H3A        81.0677   60.0485   36.4071 dc         1 CLA      0.041100
    132 H2A        79.4296   57.5246   35.8062 dc         1 CLA      0.083100
    133 H2         82.3341   55.7811   36.2991 da         1 CLA      0.180900
    134 H18        82.7913   58.9260   46.9418 dc         1 CLA     -0.003900
    135 H13        82.2236   56.0673   41.8164 dc         1 CLA      0.019700
    136 H12        80.9363   55.1334   33.8430 dc         1 CLA      0.120400
    137 H11        82.5287   55.5277   33.3374 dc         1 CLA      0.120400
    138 C1         68.6834   61.7995   50.3389 Z1         2 LUT      0.509236
    139 C2         67.3284   61.5812   51.0393 Z2         2 LUT     -0.434695
    140 C3         66.4498   62.8006   51.1591 Z3         2 LUT      0.437453
    141 O3         66.4082   63.1158   52.4702 S1         2 LUT     -0.547129
    142 C4         66.8814   64.0062   50.3479 Z4         2 LUT     -0.468603
    143 C5         67.6016   63.6941   49.1321 Z5         2 LUT      0.279246
    144 C6         68.5136   62.6826   49.0875 Z6         2 LUT     -0.305473
    145 C7         68.7886   62.0857   47.8295 Z7         2 LUT      0.069402
    146 C8         69.9371   62.2763   47.1183 Z8         2 LUT     -0.191631
    147 C9         70.4213   61.8757   45.7266 Z9         2 LUT      0.196698
    148 C10        71.6852   62.3276   45.3536 Y1         2 LUT     -0.208611
    149 C11        72.2457   62.1649   44.0394 Y2         2 LUT      0.030784
    150 C12        73.3997   62.8608   43.7022 Y3         2 LUT     -0.220316
    151 C13        74.1840   62.8273   42.4280 Y4         2 LUT      0.215937
    152 C14        75.3897   63.5257   42.4565 Y5         2 LUT     -0.185793
    153 C15        76.3801   63.6081   41.4591 Y6         2 LUT     -0.057835
    154 C16        69.1807   60.3765   50.0509 Y7         2 LUT     -0.405615
    155 C17        69.6141   62.3444   51.3876 Y7         2 LUT     -0.405615
    156 C18        67.0996   64.5512   48.0851 Y9         2 LUT     -0.369639
    157 C19        69.4336   61.1554   44.7807 W1         2 LUT     -0.333362
    158 C20        73.4751   62.4774   41.1541 W2         2 LUT     -0.323439
    159 C21        87.8281   66.0456   35.2823 Z1         2 LUT      0.406104
    160 C22        88.5673   65.7571   33.9408 Z2         2 LUT     -0.404965
    161 C23        88.3959   66.8623   32.8809 Z3         2 LUT      0.391255
    162 O23        89.0861   66.5397   31.5966 S1         2 LUT     -0.528210
    163 C24        86.9772   67.3708   32.8264 W6         2 LUT     -0.258361
    164 C25        85.9805   67.2467   33.7862 Z5         2 LUT      0.133546
    165 C26        86.2245   66.4094   35.0791 W8         2 LUT     -0.147008
    166 C27        85.4978   66.9563   36.2989 Z7         2 LUT      0.023843
    167 C28        84.3083   66.4184   36.7013 Z8         2 LUT     -0.216987
    168 C29        83.5890   66.6969   37.9270 Z9         2 LUT      0.206524
    169 C30        82.5170   65.9360   38.2787 Y1         2 LUT     -0.215556
    170 C31        81.6646   66.1276   39.4350 Y2         2 LUT      0.025142
    171 C32        80.4946   65.4025   39.6322 Y3         2 LUT     -0.212209
    172 C33        79.6563   65.5021   40.7591 Y4         2 LUT      0.240937
    173 C34        78.6259   64.5348   40.8459 Y5         2 LUT     -0.218862
    174 C35        77.5174   64.3978   41.7296 Y6         2 LUT     -0.023547
    175 C36        88.7217   67.1598   36.0331 Y7         2 LUT     -0.393485
    176 C37        88.1229   64.7779   36.1103 Y7         2 LUT     -0.393485
    177 C38        84.6346   67.8719   33.5482 Y9         2 LUT     -0.387526
    178 C39        83.9107   68.0290   38.6654 W1         2 LUT     -0.322618
    179 C40        80.1123   66.1341   42.0541 W2         2 LUT     -0.358472
    180 H403       79.4348   66.1499   42.9941 R7         2 LUT      0.097720
    181 H402       81.0431   65.6347   42.3497 R7         2 LUT      0.097720
    182 H401       80.3244   67.1659   41.8218 R7         2 LUT      0.097720
    183 H393       83.2168   68.3133   39.4580 R4         2 LUT      0.082505
    184 H392       84.9410   68.0488   39.0109 R4         2 LUT      0.082505
    185 H391       83.8827   68.9216   38.0613 R4         2 LUT      0.082505
    186 H383       84.6420   68.3304   32.5462 R1         2 LUT      0.104030
    187 H382       83.8504   67.1125   33.4764 R1         2 LUT      0.104030
    188 H381       84.3455   68.6040   34.2261 R1         2 LUT      0.104030
    189 H373       87.6868   63.8344   35.7845 T4         2 LUT      0.089537
    190 H372       89.1738   64.5248   35.9165 T4         2 LUT      0.089537
    191 H371       87.9427   64.9665   37.1480 T4         2 LUT      0.089537
    192 H363       88.4080   67.5650   36.9857 T4         2 LUT      0.089537
    193 H362       89.7753   66.8580   36.1320 T4         2 LUT      0.089537
    194 H361       88.8339   68.0746   35.4632 T4         2 LUT      0.089537
    195 H222       89.6730   65.5579   34.0056 U2         2 LUT      0.127376
    196 H221       87.9354   64.9151   33.5853 U2         2 LUT      0.127376
    197 H203       72.5589   63.0770   40.9728 R7         2 LUT      0.087068
    198 H202       74.1559   62.6516   40.3460 R7         2 LUT      0.087068
    199 H201       73.0814   61.5324   41.2512 R7         2 LUT      0.087068
    200 H193       69.1612   61.8769   43.9522 R4         2 LUT      0.089716
    201 H192       69.9550   60.3702   44.1112 R4         2 LUT      0.089716
    202 H191       68.5309   60.7673   45.2286 R4         2 LUT      0.089716
    203 H183       66.0716   64.5741   48.1093 R1         2 LUT      0.094572
    204 H182       67.4441   65.6047   48.1564 R1         2 LUT      0.094572
    205 H181       67.3855   64.2022   47.1593 R1         2 LUT      0.094572
    206 H173       69.4410   63.3252   51.8400 T4         2 LUT      0.093752
    207 H172       69.8032   61.6228   52.2402 T4         2 LUT      0.093752
    208 H171       70.5334   62.4492   50.8907 T4         2 LUT      0.093752
    209 H163       68.4106   59.9529   49.4287 T4         2 LUT      0.093752
    210 H162       70.1927   60.4036   49.5184 T4         2 LUT      0.093752
    211 H161       69.2887   59.8274   50.9876 T4         2 LUT      0.093752
    212 HO3        65.8047   62.5444   53.0044 Q1         2 LUT      0.300121
    213 H8         70.7061   62.9383   47.5769 U7         2 LUT      0.080784
    214 H7         68.0053   61.5593   47.2962 U6         2 LUT      0.042190
    215 H42        66.0266   64.5904   50.1491 U5         2 LUT      0.145166
    216 H41        67.5095   64.6154   51.0404 U5         2 LUT      0.145166
    217 H35        77.5603   65.1137   42.5711 T3         2 LUT      0.077919
    218 H34        78.5086   63.8552   39.9223 T2         2 LUT      0.073626
    219 H32        80.2726   64.7053   38.7996 T1         2 LUT      0.092510
    220 H31        81.9252   66.9263   40.1226 U9         2 LUT      0.070048
    221 H30        82.4326   65.0936   37.6288 U8         2 LUT      0.085442
    222 H3         65.3936   62.6675   50.7434 U3         2 LUT     -0.031596
    223 H28        84.0566   65.4619   36.0998 U7         2 LUT      0.084728
    224 H27        85.8000   67.8740   36.8355 U6         2 LUT      0.087291
    225 H26        85.7062   65.4504   34.8219 Q6         2 LUT      0.075325
    226 H24        86.7169   67.8087   31.8554 Q5         2 LUT      0.094482
    227 H23        89.1886   67.4985   33.2650 U3         2 LUT     -0.024869
    228 H22        66.7270   60.7788   50.5827 U2         2 LUT      0.127376
    229 H21        67.4024   60.9703   51.9067 U2         2 LUT      0.127376
    230 H15        76.3353   63.0558   40.5251 T3         2 LUT      0.093200
    231 H14        75.6062   64.0790   43.3882 T2         2 LUT      0.068865
    232 H12        73.7018   63.4537   44.5606 T1         2 LUT      0.095507
    233 H11        71.7513   61.5813   43.2497 U9         2 LUT      0.068930
    234 H10        72.2256   62.8971   46.0945 U8         2 LUT      0.083911
    235 H1         88.6356   65.9120   30.9924 Q1         2 LUT      0.297311
@<TRIPOS>BOND
    1     6     1 1
    2     7     2 1
    3     8     3 1
    4     9     4 1
    5    11     4 1
    6    12     6 1
    7    13     9 1
    8    16     9 1
    9    25     5 1
   10    25    16 1
   11    26    10 1
   12    26    17 1
   13    27    18 1
   14    28    14 1
   15    28    19 1
   16    29    12 1
   17    30    13 1
   18    31    24 1
   19    32     1 1
   20    32    25 1
   21    33    21 1
   22    33    26 1
   23    34    22 1
   24    34    27 1
   25    35    23 1
   26    35    28 1
   27    36    12 1
   28    36    24 1
   29    37    13 1
   30    37    15 1
   31    38    31 1
   32    39    20 1
   33    39    32 1
   34    40     2 1
   35    40    33 1
   36    41     3 1
   37    41    34 1
   38    42     4 1
   39    42    35 1
   40    43    38 1
   41    44     5 1
   42    44    17 1
   43    44    39 1
   44    45    10 1
   45    45    18 1
   46    45    40 1
   47    46    19 1
   48    46    41 1
   49    47    14 1
   50    47    16 1
   51    47    42 1
   52    48    38 1
   53    49    48 1
   54    50    49 1
   55    51    50 1
   56    52    51 1
   57    53    51 1
   58    54    53 1
   59    55    54 1
   60    56    55 1
   61    57    56 1
   62    58    56 1
   63    59    58 1
   64    60    59 1
   65    61    60 1
   66    62    61 1
   67    63    61 1
   68    64    27 1
   69    64    46 1
   70    65     5 1
   71    65    10 1
   72    65    64 1
   73    65    14 1
   74    66    23 1
   75    67    23 1
   76    68    23 1
   77    69    22 1
   78    70    22 1
   79    71    22 1
   80    72    21 1
   81    73    21 1
   82    74    21 1
   83    75    20 1
   84    76    20 1
   85    77    20 1
   86    78    15 1
   87    79    15 1
   88    80    15 1
   89    81     8 1
   90    82     8 1
   91    83     8 1
   92    84     7 1
   93    85     7 1
   94    86     6 1
   95    87     6 1
   96    88     3 1
   97    89     3 1
   98    90     1 1
   99    91     1 1
  100    92    63 1
  101    93    63 1
  102    94    63 1
  103    95    62 1
  104    96    62 1
  105    97    62 1
  106    98    60 1
  107    99    60 1
  108   100    59 1
  109   101    59 1
  110   102    58 1
  111   103    58 1
  112   104    57 1
  113   105    57 1
  114   106    57 1
  115   107    55 1
  116   108    55 1
  117   109    54 1
  118   110    54 1
  119   111    53 1
  120   112    53 1
  121   113    19 1
  122   114    18 1
  123   115    17 1
  124   116     9 1
  125   117     2 1
  126   118    52 1
  127   119    52 1
  128   120    52 1
  129   121    51 1
  130   122    50 1
  131   123    50 1
  132   124    49 1
  133   125    49 1
  134   126    48 1
  135   127    48 1
  136   128    43 1
  137   129    43 1
  138   130    43 1
  139   131    39 1
  140   132    32 1
  141   133    31 1
  142   134    61 1
  143   135    56 1
  144   136    24 1
  145   137    24 1
  146   139   138 1
  147   140   139 1
  148   141   140 1
  149   142   140 1
  150   143   142 1
  151   144   138 1
  152   144   143 1
  153   145   144 1
  154   146   145 1
  155   147   146 1
  156   148   147 1
  157   149   148 1
  158   150   149 1
  159   151   150 1
  160   152   151 1
  161   153   152 1
  162   154   138 1
  163   155   138 1
  164   156   143 1
  165   157   147 1
  166   158   151 1
  167   160   159 1
  168   161   160 1
  169   162   161 1
  170   163   161 1
  171   164   163 1
  172   165   159 1
  173   165   164 1
  174   166   165 1
  175   167   166 1
  176   168   167 1
  177   169   168 1
  178   170   169 1
  179   171   170 1
  180   172   171 1
  181   173   172 1
  182   174   153 1
  183   174   173 1
  184   175   159 1
  185   176   159 1
  186   177   164 1
  187   178   168 1
  188   179   172 1
  189   180   179 1
  190   181   179 1
  191   182   179 1
  192   183   178 1
  193   184   178 1
  194   185   178 1
  195   186   177 1
  196   187   177 1
  197   188   177 1
  198   189   176 1
  199   190   176 1
  200   191   176 1
  201   192   175 1
  202   193   175 1
  203   194   175 1
  204   195   160 1
  205   196   160 1
  206   197   158 1
  207   198   158 1
  208   199   158 1
  209   200   157 1
  210   201   157 1
  211   202   157 1
  212   203   156 1
  213   204   156 1
  214   205   156 1
  215   206   155 1
  216   207   155 1
  217   208   155 1
  218   209   154 1
  219   210   154 1
  220   211   154 1
  221   212   141 1
  222   213   146 1
  223   214   145 1
  224   215   142 1
  225   216   142 1
  226   217   174 1
  227   218   173 1
  228   219   171 1
  229   220   170 1
  230   221   169 1
  231   222   140 1
  232   223   167 1
  233   224   166 1
  234   225   165 1
  235   226   163 1
  236   227   161 1
  237   228   139 1
  238   229   139 1
  239   230   153 1
  240   231   152 1
  241   232   150 1
  242   233   149 1
  243   234   148 1
  244   235   162 1
  245   65    153 1
  246   65    174 1
@<TRIPOS>SUBSTRUCTURE
      1 CLA               1 ****               0 ****  **** 
      2 LUT             138 ****               0 ****  **** 
