@<TRIPOS>MOLECULE
Cpptraj generated mol2 file.
  235   246     2     0     0
SMALL
USER_CHARGES


@<TRIPOS>ATOM
      1 CAA        77.4108   58.1949   34.6924 a2         1 CLA     -0.055900
      2 CAB        77.4767   62.0769   43.7277 c8         1 CLA     -0.148500
      3 CAC        70.3909   58.2009   43.3291 a2         1 CLA     -0.012600
      4 CAD        73.3077   55.5231   36.0233 ck         1 CLA      0.398800
      5 NA         76.4139   58.7198   38.1007 ns         1 CLA     -0.225500
      6 CBA        78.5500   58.3754   33.6238 a2         1 CLA     -0.135000
      7 CBB        76.5956   62.6439   44.6453 c0         1 CLA     -0.395200
      8 CBC        70.2719   56.6961   43.4798 a3         1 CLA     -0.037700
      9 CBD        74.8408   55.9416   35.8297 a1         1 CLA     -0.053900
     10 NB         76.1972   60.2396   40.6646 nm         1 CLA     -0.295700
     11 OBD        72.7475   54.7066   35.2486 o2         1 CLA     -0.494600
     12 CGA        79.1469   57.1670   33.0336 c4         1 CLA      0.827000
     13 CGD        75.6853   54.8109   35.9903 c4         1 CLA      0.655300
     14 ND         73.5186   57.8262   38.6996 nm         1 CLA     -0.291600
     15 CED        75.7344   52.5929   36.9985 a3         1 CLA      0.005400
     16 CHA        75.1291   57.0685   36.8590 cs         1 CLA     -0.123800
     17 CHB        78.0619   60.2693   38.9962 aa         1 CLA     -0.291900
     18 CHC        74.8999   60.3554   42.7345 aa         1 CLA     -0.090400
     19 CHD        71.6380   57.6465   40.3228 aa         1 CLA     -0.052000
     20 CMA        79.9303   58.3612   37.3246 a3         1 CLA     -0.230700
     21 CMB        79.5283   61.7137   41.2898 a3         1 CLA     -0.180800
     22 CMC        72.6890   60.0628   44.8261 a3         1 CLA     -0.134000
     23 CMD        70.6243   55.5457   38.2102 a3         1 CLA     -0.141100
     24 C1         80.1124   55.1359   33.6597 a2         1 CLA      0.023000
     25 C1A        76.2527   57.8517   37.0332 ac         1 CLA     -0.015100
     26 C1B        77.4345   60.6205   40.2560 cr         1 CLA      0.054700
     27 C1C        73.6795   59.7719   42.3914 cn         1 CLA     -0.005600
     28 C1D        72.2745   57.2683   39.1600 ap         1 CLA     -0.047300
     29 O1A        78.9475   56.7307   31.9182 o2         1 CLA     -0.610800
     30 O1D        76.6209   54.5952   35.2791 o2         1 CLA     -0.558200
     31 C2         80.4145   54.2132   34.8224 c8         1 CLA     -0.325100
     32 C2A        77.5853   57.8057   36.1598 a1         1 CLA      0.098600
     33 C2B        78.0860   61.2903   41.3531 cb         1 CLA      0.088500
     34 C2C        72.5869   59.5415   43.3272 cb         1 CLA      0.053700
     35 C2D        71.8196   56.3482   38.1820 cb         1 CLA      0.058900
     36 O2A        79.5214   56.4128   34.1651 o1         1 CLA     -0.437200
     37 O2D        75.3133   54.0104   37.0160 o1         1 CLA     -0.357600
     38 C3         81.5573   53.9577   35.4524 c5         1 CLA      0.031200
     39 C3A        78.5130   58.8868   36.8664 a1         1 CLA      0.166800
     40 C3B        77.2299   61.4482   42.4374 cb         1 CLA      0.035000
     41 C3C        71.6087   58.7669   42.6478 cb         1 CLA     -0.089900
     42 C3D        72.8645   56.2250   37.2038 cb         1 CLA     -0.035900
     43 C4         82.4456   52.7340   35.2404 a3         1 CLA     -0.053300
     44 C4A        77.6694   59.3551   38.0871 ac         1 CLA      0.001800
     45 C4B        76.0131   60.6882   41.9239 cn         1 CLA     -0.020900
     46 C4C        72.2146   58.5329   41.2669 cr         1 CLA     -0.044400
     47 C4D        73.9418   57.0400   37.6507 c6         1 CLA     -0.046000
     48 C5         81.7133   54.7644   36.7328 a2         1 CLA     -0.070400
     49 C6         82.6477   55.9834   36.5598 a2         1 CLA      0.043900
     50 C7         82.9504   56.5199   37.9798 a2         1 CLA     -0.150000
     51 C8         83.6770   57.9224   38.1049 a1         1 CLA      0.064200
     52 C9         84.9412   57.9963   37.3001 a3         1 CLA     -0.259300
     53 C10        83.9477   58.3218   39.6094 a2         1 CLA     -0.071900
     54 C11        82.7341   58.2922   40.4794 a2         1 CLA      0.014500
     55 C12        82.8307   59.3047   41.6586 a2         1 CLA     -0.112100
     56 C13        83.9965   59.1676   42.7132 a1         1 CLA      0.089200
     57 C14        83.9645   57.7664   43.5271 a3         1 CLA     -0.239100
     58 C15        84.2417   60.4249   43.5549 a2         1 CLA     -0.102200
     59 C16        83.1429   60.8909   44.4767 a2         1 CLA      0.023900
     60 C17        83.6047   62.1025   45.3565 a2         1 CLA     -0.105700
     61 C18        82.5461   62.5334   46.4354 a1         1 CLA      0.206800
     62 C19        82.9926   63.8187   47.1474 a3         1 CLA     -0.280100
     63 C20        81.1241   62.7620   45.8796 a3         1 CLA     -0.280100
     64 NC         73.4585   59.1651   41.1578 nx         1 CLA     -0.309200
     65 MG         74.8087   59.1362   39.5858 mg         1 CLA      0.895000
     66 HMD3       69.8687   56.2410   37.7921 dc         1 CLA      0.064300
     67 HMD2       70.7685   54.7568   37.5771 dc         1 CLA      0.064300
     68 HMD1       70.3677   55.2225   39.2562 dc         1 CLA      0.064300
     69 HMC3       73.3417   59.5491   45.5495 dc         1 CLA      0.052100
     70 HMC2       72.9464   61.0716   44.6885 dc         1 CLA      0.052100
     71 HMC1       71.6991   60.1050   45.3742 dc         1 CLA      0.052100
     72 HMB3       79.9885   61.9826   42.2289 dc         1 CLA      0.063600
     73 HMB2       80.1409   60.9249   40.8912 dc         1 CLA      0.063600
     74 HMB1       79.6840   62.5728   40.6111 dc         1 CLA      0.063600
     75 HMA3       79.9036   57.5322   38.0111 dc         1 CLA      0.058300
     76 HMA2       80.3771   57.9822   36.4183 dc         1 CLA      0.058300
     77 HMA1       80.5713   59.1563   37.7563 dc         1 CLA      0.058300
     78 HED3       75.2498   52.0611   37.8048 dc         1 CLA      0.079300
     79 HED2       75.5193   52.1113   36.0296 dc         1 CLA      0.079300
     80 HED1       76.8019   52.5267   37.2259 dc         1 CLA      0.079300
     81 HBC3       69.4000   56.6041   44.1170 dc         1 CLA      0.016300
     82 HBC2       70.0042   56.2472   42.5800 dc         1 CLA      0.016300
     83 HBC1       71.1917   56.2750   43.9319 dc         1 CLA      0.016300
     84 HBB2       76.9585   63.1557   45.5622 da         1 CLA      0.183000
     85 HBB1       75.5168   62.4653   44.6406 da         1 CLA      0.183000
     86 HBA2       78.1585   58.9728   32.7843 dc         1 CLA      0.029400
     87 HBA1       79.3666   58.9099   34.0399 dc         1 CLA      0.029400
     88 HAC2       70.3664   58.5608   44.3225 dc         1 CLA      0.029300
     89 HAC1       69.5349   58.5724   42.7779 dc         1 CLA      0.029300
     90 HAA2       76.6903   57.5924   34.1814 dc         1 CLA      0.028700
     91 HAA1       76.9577   59.1868   34.7312 dc         1 CLA      0.028700
     92 H203       80.6562   63.3520   46.6913 dc         1 CLA      0.065600
     93 H202       81.0065   63.3706   45.0270 dc         1 CLA      0.065600
     94 H201       80.7476   61.7926   45.7535 dc         1 CLA      0.065600
     95 H193       82.4981   63.8433   48.1188 dc         1 CLA      0.065600
     96 H192       84.0813   63.8421   47.1486 dc         1 CLA      0.065600
     97 H191       82.6928   64.7552   46.6686 dc         1 CLA      0.065600
     98 H172       84.5237   62.0109   45.9289 dc         1 CLA      0.027600
     99 H171       83.7872   62.9003   44.6840 dc         1 CLA      0.027600
    100 H162       82.3387   61.2581   43.8579 dc         1 CLA      0.002900
    101 H161       82.6523   60.0165   44.9232 dc         1 CLA      0.002900
    102 H152       85.0608   60.1763   44.2799 dc         1 CLA      0.029100
    103 H151       84.3964   61.2262   42.8208 dc         1 CLA      0.029100
    104 H143       84.9804   57.4997   43.8755 dc         1 CLA      0.063600
    105 H142       83.3754   57.8958   44.4167 dc         1 CLA      0.063600
    106 H141       83.4860   56.9928   42.8756 dc         1 CLA      0.063600
    107 H122       82.8680   60.2976   41.2042 dc         1 CLA      0.032500
    108 H121       81.8978   59.1467   42.1770 dc         1 CLA      0.032500
    109 H112       81.8762   58.5670   39.8618 dc         1 CLA      0.006600
    110 H111       82.5734   57.3114   40.9245 dc         1 CLA      0.006600
    111 H102       84.7041   57.6665   40.0155 dc         1 CLA      0.024100
    112 H101       84.2860   59.3374   39.4300 dc         1 CLA      0.024100
    113 HHD        70.6711   57.4030   40.6403 da         1 CLA      0.174300
    114 HHC        75.0946   60.6247   43.7642 da         1 CLA      0.136800
    115 HHB        79.0890   60.5536   38.7776 da         1 CLA      0.138300
    116 HBD        75.0180   56.3130   34.8236 dc         1 CLA      0.107700
    117 HAB        78.5823   62.2972   43.7708 da         1 CLA      0.155200
    118 H93        85.5191   57.1322   37.5565 dc         1 CLA      0.069500
    119 H92        84.6494   57.9995   36.3020 dc         1 CLA      0.069500
    120 H91        85.4330   58.9672   37.4578 dc         1 CLA      0.069500
    121 H8         83.0060   58.7043   37.7407 dc         1 CLA      0.029300
    122 H72        81.9182   56.6729   38.3736 dc         1 CLA      0.044400
    123 H71        83.5418   55.7288   38.5904 dc         1 CLA      0.044400
    124 H62        83.6082   55.7760   36.0405 dc         1 CLA      0.015600
    125 H61        82.2029   56.7860   36.0915 dc         1 CLA      0.015600
    126 H52        80.8071   55.2973   36.9791 dc         1 CLA      0.033200
    127 H51        82.1538   54.0735   37.4914 dc         1 CLA      0.033200
    128 H43        82.1504   52.2566   34.2923 dc         1 CLA      0.037000
    129 H42        83.5385   53.0651   35.0527 dc         1 CLA      0.037000
    130 H41        82.4121   52.1384   36.1147 dc         1 CLA      0.037000
    131 H3A        78.6812   59.7799   36.2500 dc         1 CLA      0.041100
    132 H2A        78.0837   56.8759   36.2660 dc         1 CLA      0.083100
    133 H2         79.6238   53.6081   35.1996 da         1 CLA      0.180900
    134 H18        82.5434   61.7785   47.1611 dc         1 CLA     -0.003900
    135 H13        84.8671   58.8284   42.1854 dc         1 CLA      0.019700
    136 H12        79.3694   54.6467   32.9920 dc         1 CLA      0.120400
    137 H11        81.0164   55.2309   33.0829 dc         1 CLA      0.120400
    138 C1         66.8870   62.1880   50.7996 Z1         2 LUT      0.509236
    139 C2         66.8329   63.5576   51.5214 Z2         2 LUT     -0.434695
    140 C3         65.4972   64.2896   51.5432 Z3         2 LUT      0.437453
    141 O3         65.8473   65.6233   51.8234 S1         2 LUT     -0.547129
    142 C4         64.8395   64.2033   50.1524 Z4         2 LUT     -0.468603
    143 C5         65.6125   63.5523   49.0362 Z5         2 LUT      0.279246
    144 C6         66.5583   62.5993   49.3412 Z6         2 LUT     -0.305473
    145 C7         67.5183   62.1007   48.3046 Z7         2 LUT      0.069402
    146 C8         68.1408   62.8024   47.2726 Z8         2 LUT     -0.191631
    147 C9         68.9876   62.1385   46.2548 Z9         2 LUT      0.196698
    148 C10        69.7078   63.0062   45.4356 Y1         2 LUT     -0.208611
    149 C11        70.4556   62.8023   44.1866 Y2         2 LUT      0.030784
    150 C12        71.4266   63.6079   43.7971 Y3         2 LUT     -0.220316
    151 C13        72.2466   63.4037   42.6085 Y4         2 LUT      0.215937
    152 C14        73.4217   64.0560   42.6530 Y5         2 LUT     -0.185793
    153 C15        74.5946   63.9913   41.7834 Y6         2 LUT     -0.057835
    154 C16        65.8177   61.2842   51.5251 Y7         2 LUT     -0.405615
    155 C17        68.2531   61.4711   51.0283 Y7         2 LUT     -0.405615
    156 C18        65.4338   64.2787   47.7282 Y9         2 LUT     -0.369639
    157 C19        68.7440   60.7168   45.7570 W1         2 LUT     -0.333362
    158 C20        71.8391   62.4754   41.4692 W2         2 LUT     -0.323439
    159 C21        86.1393   65.2668   35.8526 Z1         2 LUT      0.406104
    160 C22        86.9518   64.6367   34.7074 Z2         2 LUT     -0.404965
    161 C23        86.9519   65.4211   33.4462 Z3         2 LUT      0.391255
    162 O23        87.2463   64.5193   32.3393 S1         2 LUT     -0.528210
    163 C24        85.6767   66.2224   33.2134 W6         2 LUT     -0.258361
    164 C25        84.6219   66.3088   34.0116 Z5         2 LUT      0.133546
    165 C26        84.6764   65.5161   35.3431 W8         2 LUT     -0.147008
    166 C27        83.8626   66.2889   36.4169 Z7         2 LUT      0.023843
    167 C28        82.6463   65.9492   36.8216 Z8         2 LUT     -0.216987
    168 C29        81.9243   66.4651   38.0061 Z9         2 LUT      0.206524
    169 C30        80.8635   65.7608   38.4501 Y1         2 LUT     -0.215556
    170 C31        80.2111   65.8126   39.7723 Y2         2 LUT      0.025142
    171 C32        79.0433   65.1109   40.0147 Y3         2 LUT     -0.212209
    172 C33        78.0306   65.3382   41.0675 Y4         2 LUT      0.240937
    173 C34        76.8866   64.6257   41.0333 Y5         2 LUT     -0.218862
    174 C35        75.7682   64.5947   42.0151 Y6         2 LUT     -0.023547
    175 C36        86.9579   66.4156   36.4386 Y7         2 LUT     -0.393485
    176 C37        86.2424   64.1304   36.9013 Y7         2 LUT     -0.393485
    177 C38        83.4341   67.1036   33.4812 Y9         2 LUT     -0.387526
    178 C39        82.5036   67.6303   38.8337 W1         2 LUT     -0.322618
    179 C40        78.3106   66.3825   42.0800 W2         2 LUT     -0.358472
    180 H403       77.4756   66.5778   42.7709 R7         2 LUT      0.097720
    181 H402       79.1924   66.1533   42.6545 R7         2 LUT      0.097720
    182 H401       78.5121   67.4197   41.7507 R7         2 LUT      0.097720
    183 H393       81.7994   68.4454   38.8253 R4         2 LUT      0.082505
    184 H392       82.9933   67.4311   39.7792 R4         2 LUT      0.082505
    185 H391       83.3536   68.1031   38.3682 R4         2 LUT      0.082505
    186 H383       83.5081   67.4110   32.4253 R1         2 LUT      0.104030
    187 H382       82.5347   66.5685   33.5322 R1         2 LUT      0.104030
    188 H381       83.2821   68.0361   33.9972 R1         2 LUT      0.104030
    189 H373       85.7570   64.4465   37.8628 T4         2 LUT      0.089537
    190 H372       85.8654   63.1892   36.4568 T4         2 LUT      0.089537
    191 H371       87.2989   63.9453   37.1746 T4         2 LUT      0.089537
    192 H363       87.0714   67.2542   35.7517 T4         2 LUT      0.089537
    193 H362       86.4657   66.9788   37.2529 T4         2 LUT      0.089537
    194 H361       87.9603   66.0744   36.6870 T4         2 LUT      0.089537
    195 H222       87.9772   64.3958   34.9704 U2         2 LUT      0.127376
    196 H221       86.5564   63.6390   34.4926 U2         2 LUT      0.127376
    197 H203       71.3006   63.0563   40.7365 R7         2 LUT      0.087068
    198 H202       72.7263   61.8995   41.0679 R7         2 LUT      0.087068
    199 H201       71.1369   61.7328   41.6751 R7         2 LUT      0.087068
    200 H193       67.7921   60.5684   45.2783 R4         2 LUT      0.089716
    201 H192       69.5415   60.4478   45.0296 R4         2 LUT      0.089716
    202 H191       68.6472   59.9767   46.5389 R4         2 LUT      0.089716
    203 H183       64.4144   64.6564   47.5427 R1         2 LUT      0.094572
    204 H182       66.0159   65.2184   47.9385 R1         2 LUT      0.094572
    205 H181       65.8321   63.8069   46.8170 R1         2 LUT      0.094572
    206 H173       68.3983   60.6690   50.2830 T4         2 LUT      0.093752
    207 H172       69.0472   62.2195   50.8575 T4         2 LUT      0.093752
    208 H171       68.4251   61.1730   52.0591 T4         2 LUT      0.093752
    209 H163       65.8812   60.1813   51.3479 T4         2 LUT      0.093752
    210 H162       65.8544   61.4454   52.6305 T4         2 LUT      0.093752
    211 H161       64.8106   61.6176   51.3063 T4         2 LUT      0.093752
    212 HO3        65.2976   66.0555   52.5169 Q1         2 LUT      0.300121
    213 H8         68.1582   63.8633   47.2330 U7         2 LUT      0.080784
    214 H7         67.6134   61.0385   48.2036 U6         2 LUT      0.042190
    215 H42        63.9577   63.6218   50.2505 U5         2 LUT      0.145166
    216 H41        64.3700   65.2237   49.9148 U5         2 LUT      0.145166
    217 H35        75.7980   65.1444   42.9432 T3         2 LUT      0.077919
    218 H34        76.7835   64.0100   40.1230 T2         2 LUT      0.073626
    219 H32        78.7753   64.3865   39.1997 T1         2 LUT      0.092510
    220 H31        80.6073   66.5845   40.4381 U9         2 LUT      0.070048
    221 H30        80.5977   64.8478   37.8548 U8         2 LUT      0.085442
    222 H3         64.7575   63.7941   52.2466 U3         2 LUT     -0.031596
    223 H28        82.1991   65.1674   36.2930 U7         2 LUT      0.084728
    224 H27        84.2977   67.1606   36.8477 U6         2 LUT      0.087291
    225 H26        84.1524   64.6775   34.8579 Q6         2 LUT      0.075325
    226 H24        85.6890   66.5663   32.1423 Q5         2 LUT      0.094482
    227 H23        87.7248   66.1811   33.7150 U3         2 LUT     -0.024869
    228 H22        67.1224   63.5147   52.5265 U2         2 LUT      0.127376
    229 H21        67.5164   64.2607   51.1553 U2         2 LUT      0.127376
    230 H15        74.5054   63.4783   40.8066 T3         2 LUT      0.093200
    231 H14        73.7304   64.7227   43.5360 T2         2 LUT      0.068865
    232 H12        71.8143   64.3717   44.4589 T1         2 LUT      0.095507
    233 H11        70.2280   61.9040   43.7315 U9         2 LUT      0.068930
    234 H10        69.7640   63.9930   45.9018 U8         2 LUT      0.083911
    235 H1         87.5886   64.9903   31.6016 Q1         2 LUT      0.297311
@<TRIPOS>BOND
    1     6     1 1
    2     7     2 1
    3     8     3 1
    4     9     4 1
    5    11     4 1
    6    12     6 1
    7    13     9 1
    8    16     9 1
    9    25     5 1
   10    25    16 1
   11    26    10 1
   12    26    17 1
   13    27    18 1
   14    28    14 1
   15    28    19 1
   16    29    12 1
   17    30    13 1
   18    31    24 1
   19    32     1 1
   20    32    25 1
   21    33    21 1
   22    33    26 1
   23    34    22 1
   24    34    27 1
   25    35    23 1
   26    35    28 1
   27    36    12 1
   28    36    24 1
   29    37    13 1
   30    37    15 1
   31    38    31 1
   32    39    20 1
   33    39    32 1
   34    40     2 1
   35    40    33 1
   36    41     3 1
   37    41    34 1
   38    42     4 1
   39    42    35 1
   40    43    38 1
   41    44     5 1
   42    44    17 1
   43    44    39 1
   44    45    10 1
   45    45    18 1
   46    45    40 1
   47    46    19 1
   48    46    41 1
   49    47    14 1
   50    47    16 1
   51    47    42 1
   52    48    38 1
   53    49    48 1
   54    50    49 1
   55    51    50 1
   56    52    51 1
   57    53    51 1
   58    54    53 1
   59    55    54 1
   60    56    55 1
   61    57    56 1
   62    58    56 1
   63    59    58 1
   64    60    59 1
   65    61    60 1
   66    62    61 1
   67    63    61 1
   68    64    27 1
   69    64    46 1
   70    65     5 1
   71    65    10 1
   72    65    64 1
   73    65    14 1
   74    66    23 1
   75    67    23 1
   76    68    23 1
   77    69    22 1
   78    70    22 1
   79    71    22 1
   80    72    21 1
   81    73    21 1
   82    74    21 1
   83    75    20 1
   84    76    20 1
   85    77    20 1
   86    78    15 1
   87    79    15 1
   88    80    15 1
   89    81     8 1
   90    82     8 1
   91    83     8 1
   92    84     7 1
   93    85     7 1
   94    86     6 1
   95    87     6 1
   96    88     3 1
   97    89     3 1
   98    90     1 1
   99    91     1 1
  100    92    63 1
  101    93    63 1
  102    94    63 1
  103    95    62 1
  104    96    62 1
  105    97    62 1
  106    98    60 1
  107    99    60 1
  108   100    59 1
  109   101    59 1
  110   102    58 1
  111   103    58 1
  112   104    57 1
  113   105    57 1
  114   106    57 1
  115   107    55 1
  116   108    55 1
  117   109    54 1
  118   110    54 1
  119   111    53 1
  120   112    53 1
  121   113    19 1
  122   114    18 1
  123   115    17 1
  124   116     9 1
  125   117     2 1
  126   118    52 1
  127   119    52 1
  128   120    52 1
  129   121    51 1
  130   122    50 1
  131   123    50 1
  132   124    49 1
  133   125    49 1
  134   126    48 1
  135   127    48 1
  136   128    43 1
  137   129    43 1
  138   130    43 1
  139   131    39 1
  140   132    32 1
  141   133    31 1
  142   134    61 1
  143   135    56 1
  144   136    24 1
  145   137    24 1
  146   139   138 1
  147   140   139 1
  148   141   140 1
  149   142   140 1
  150   143   142 1
  151   144   138 1
  152   144   143 1
  153   145   144 1
  154   146   145 1
  155   147   146 1
  156   148   147 1
  157   149   148 1
  158   150   149 1
  159   151   150 1
  160   152   151 1
  161   153   152 1
  162   154   138 1
  163   155   138 1
  164   156   143 1
  165   157   147 1
  166   158   151 1
  167   160   159 1
  168   161   160 1
  169   162   161 1
  170   163   161 1
  171   164   163 1
  172   165   159 1
  173   165   164 1
  174   166   165 1
  175   167   166 1
  176   168   167 1
  177   169   168 1
  178   170   169 1
  179   171   170 1
  180   172   171 1
  181   173   172 1
  182   174   153 1
  183   174   173 1
  184   175   159 1
  185   176   159 1
  186   177   164 1
  187   178   168 1
  188   179   172 1
  189   180   179 1
  190   181   179 1
  191   182   179 1
  192   183   178 1
  193   184   178 1
  194   185   178 1
  195   186   177 1
  196   187   177 1
  197   188   177 1
  198   189   176 1
  199   190   176 1
  200   191   176 1
  201   192   175 1
  202   193   175 1
  203   194   175 1
  204   195   160 1
  205   196   160 1
  206   197   158 1
  207   198   158 1
  208   199   158 1
  209   200   157 1
  210   201   157 1
  211   202   157 1
  212   203   156 1
  213   204   156 1
  214   205   156 1
  215   206   155 1
  216   207   155 1
  217   208   155 1
  218   209   154 1
  219   210   154 1
  220   211   154 1
  221   212   141 1
  222   213   146 1
  223   214   145 1
  224   215   142 1
  225   216   142 1
  226   217   174 1
  227   218   173 1
  228   219   171 1
  229   220   170 1
  230   221   169 1
  231   222   140 1
  232   223   167 1
  233   224   166 1
  234   225   165 1
  235   226   163 1
  236   227   161 1
  237   228   139 1
  238   229   139 1
  239   230   153 1
  240   231   152 1
  241   232   150 1
  242   233   149 1
  243   234   148 1
  244   235   162 1
  245   65    153 1
  246   65    174 1
@<TRIPOS>SUBSTRUCTURE
      1 CLA               1 ****               0 ****  **** 
      2 LUT             138 ****               0 ****  **** 
