@<TRIPOS>MOLECULE
Cpptraj generated mol2 file.
  235   246     2     0     0
SMALL
USER_CHARGES


@<TRIPOS>ATOM
      1 CAA        79.2827   58.7587   33.5440 a2         1 CLA     -0.055900
      2 CAB        78.8824   61.6612   42.9459 c8         1 CLA     -0.148500
      3 CAC        71.9404   57.5443   41.8385 a2         1 CLA     -0.012600
      4 CAD        74.5707   56.5781   34.1776 ck         1 CLA      0.398800
      5 NA         77.9657   58.8880   36.8800 ns         1 CLA     -0.225500
      6 CBA        80.5314   58.5000   32.7713 a2         1 CLA     -0.135000
      7 CBB        80.0231   61.7119   43.6469 c0         1 CLA     -0.395200
      8 CBC        72.1066   56.0603   41.7052 a3         1 CLA     -0.037700
      9 CBD        76.1275   56.9961   33.9336 a1         1 CLA     -0.053900
     10 NB         77.8082   59.9480   39.7408 nm         1 CLA     -0.295700
     11 OBD        73.9604   55.9683   33.3410 o2         1 CLA     -0.494600
     12 CGA        80.7716   57.0155   32.2770 c4         1 CLA      0.827000
     13 CGD        76.9800   55.8394   33.6109 c4         1 CLA      0.655300
     14 ND         75.0676   57.9402   37.3530 nm         1 CLA     -0.291600
     15 CED        77.2615   53.5325   34.4046 a3         1 CLA      0.005400
     16 CHA        76.5537   57.7177   35.3266 cs         1 CLA     -0.123800
     17 CHB        79.7375   59.9885   38.1390 aa         1 CLA     -0.291900
     18 CHC        76.2862   60.2060   41.6887 aa         1 CLA     -0.090400
     19 CHD        73.2597   57.6534   38.9475 aa         1 CLA     -0.052000
     20 CMA        81.3358   57.8040   36.4847 a3         1 CLA     -0.230700
     21 CMB        81.0758   61.8271   40.4873 a3         1 CLA     -0.180800
     22 CMC        73.8147   59.6726   43.6184 a3         1 CLA     -0.134000
     23 CMD        71.8155   56.2896   36.2746 a3         1 CLA     -0.141100
     24 C1         81.6031   54.7891   33.1599 a2         1 CLA      0.023000
     25 C1A        77.8318   58.2154   35.6958 ac         1 CLA     -0.015100
     26 C1B        79.0846   60.3886   39.3909 cr         1 CLA      0.054700
     27 C1C        75.1410   59.4795   41.3335 cn         1 CLA     -0.005600
     28 C1D        73.7961   57.4541   37.7084 ap         1 CLA     -0.047300
     29 O1A        80.5779   56.5492   31.1731 o2         1 CLA     -0.610800
     30 O1D        77.7785   55.7263   32.6958 o2         1 CLA     -0.558200
     31 C2         82.2916   54.3140   34.4415 c8         1 CLA     -0.325100
     32 C2A        79.1613   58.0398   34.9681 a1         1 CLA      0.098600
     33 C2B        79.7092   61.0757   40.5029 cb         1 CLA      0.088500
     34 C2C        73.9676   59.1515   42.1738 cb         1 CLA      0.053700
     35 C2D        73.2399   56.9041   36.4678 cb         1 CLA      0.058900
     36 O2A        81.3651   56.2237   33.2819 o1         1 CLA     -0.437200
     37 O2D        76.7306   54.9008   34.5869 o1         1 CLA     -0.357600
     38 C3         83.4501   53.6509   34.4845 c5         1 CLA      0.031200
     39 C3A        80.1265   58.7257   35.9722 a1         1 CLA      0.166800
     40 C3B        78.7454   61.0596   41.5740 cb         1 CLA      0.035000
     41 C3C        73.2063   58.3139   41.3827 cb         1 CLA     -0.089900
     42 C3D        74.2594   56.9925   35.5444 cb         1 CLA     -0.035900
     43 C4         83.7058   52.1754   34.5119 a3         1 CLA     -0.053300
     44 C4A        79.2127   59.3197   37.0837 ac         1 CLA      0.001800
     45 C4B        77.5659   60.4211   41.0304 cn         1 CLA     -0.020900
     46 C4C        73.8021   58.2441   40.0784 cr         1 CLA     -0.044400
     47 C4D        75.3767   57.5805   36.1194 c6         1 CLA     -0.046000
     48 C5         84.7164   54.4281   34.0550 a2         1 CLA     -0.070400
     49 C6         84.8756   55.8043   34.7679 a2         1 CLA      0.043900
     50 C7         84.9895   55.5607   36.3204 a2         1 CLA     -0.150000
     51 C8         85.3763   56.8259   37.1687 a1         1 CLA      0.064200
     52 C9         86.9193   57.1618   37.0752 a3         1 CLA     -0.259300
     53 C10        84.7692   56.6230   38.5520 a2         1 CLA     -0.071900
     54 C11        85.0276   57.9698   39.3512 a2         1 CLA      0.014500
     55 C12        84.2225   57.8499   40.6635 a2         1 CLA     -0.112100
     56 C13        84.4287   58.8933   41.8662 a1         1 CLA      0.089200
     57 C14        85.8715   59.1621   42.3282 a3         1 CLA     -0.239100
     58 C15        83.4752   58.6202   43.0707 a2         1 CLA     -0.102200
     59 C16        83.6450   57.3257   43.8805 a2         1 CLA      0.023900
     60 C17        82.7613   57.4454   45.2022 a2         1 CLA     -0.105700
     61 C18        83.3471   56.4035   46.3173 a1         1 CLA      0.206800
     62 C19        84.5996   57.0155   46.9587 a3         1 CLA     -0.280100
     63 C20        82.2825   55.9427   47.2891 a3         1 CLA     -0.280100
     64 NC         74.9597   58.9072   40.0712 nx         1 CLA     -0.309200
     65 MG         76.4349   59.0361   38.4374 mg         1 CLA      0.895000
     66 HMD3       71.0615   57.0205   35.7979 dc         1 CLA      0.064300
     67 HMD2       71.9838   55.3397   35.7589 dc         1 CLA      0.064300
     68 HMD1       71.3876   56.0889   37.3063 dc         1 CLA      0.064300
     69 HMC3       73.1941   59.0653   44.1934 dc         1 CLA      0.052100
     70 HMC2       74.7550   59.7577   44.1073 dc         1 CLA      0.052100
     71 HMC1       73.2493   60.6264   43.7035 dc         1 CLA      0.052100
     72 HMB3       81.1941   62.6750   41.1644 dc         1 CLA      0.063600
     73 HMB2       81.8396   61.1201   40.8434 dc         1 CLA      0.063600
     74 HMB1       81.3196   62.2245   39.5647 dc         1 CLA      0.063600
     75 HMA3       81.9943   57.5983   35.6591 dc         1 CLA      0.058300
     76 HMA2       81.8548   58.2531   37.3363 dc         1 CLA      0.058300
     77 HMA1       80.9423   56.8229   36.9222 dc         1 CLA      0.058300
     78 HED3       77.3034   53.0777   35.3833 dc         1 CLA      0.079300
     79 HED2       76.5774   52.9306   33.7269 dc         1 CLA      0.079300
     80 HED1       78.2291   53.5472   33.9120 dc         1 CLA      0.079300
     81 HBC3       72.6346   55.6498   40.8142 dc         1 CLA      0.016300
     82 HBC2       72.6472   55.6394   42.5262 dc         1 CLA      0.016300
     83 HBC1       71.1341   55.5945   41.7493 dc         1 CLA      0.016300
     84 HBB2       80.0835   61.9652   44.7387 da         1 CLA      0.183000
     85 HBB1       80.9428   61.3529   43.2137 da         1 CLA      0.183000
     86 HBA2       80.5875   59.0412   31.8542 dc         1 CLA      0.029400
     87 HBA1       81.3953   58.9035   33.2123 dc         1 CLA      0.029400
     88 HAC2       71.7354   57.7306   42.8881 dc         1 CLA      0.029300
     89 HAC1       71.0708   57.8265   41.2576 dc         1 CLA      0.029300
     90 HAA2       78.5122   58.3027   32.8788 dc         1 CLA      0.028700
     91 HAA1       79.0522   59.8272   33.6175 dc         1 CLA      0.028700
     92 H203       82.7800   55.2445   47.9421 dc         1 CLA      0.065600
     93 H202       81.6846   56.7018   47.7871 dc         1 CLA      0.065600
     94 H201       81.5877   55.2997   46.7265 dc         1 CLA      0.065600
     95 H193       85.0100   56.3982   47.6778 dc         1 CLA      0.065600
     96 H192       85.4355   57.2797   46.3297 dc         1 CLA      0.065600
     97 H191       84.3014   57.8790   47.5274 dc         1 CLA      0.065600
     98 H172       82.7678   58.4552   45.6515 dc         1 CLA      0.027600
     99 H171       81.7586   57.0329   44.9663 dc         1 CLA      0.027600
    100 H162       83.4023   56.3443   43.3487 dc         1 CLA      0.002900
    101 H161       84.6274   57.2638   44.2894 dc         1 CLA      0.002900
    102 H152       83.4165   59.4548   43.7918 dc         1 CLA      0.029100
    103 H151       82.4992   58.5572   42.5230 dc         1 CLA      0.029100
    104 H143       86.1256   58.3404   43.0300 dc         1 CLA      0.063600
    105 H142       86.4985   59.2040   41.4048 dc         1 CLA      0.063600
    106 H141       85.9391   60.0890   42.8543 dc         1 CLA      0.063600
    107 H122       83.1649   57.8486   40.3508 dc         1 CLA      0.032500
    108 H121       84.2867   56.7878   41.0549 dc         1 CLA      0.032500
    109 H112       86.0888   58.1396   39.5470 dc         1 CLA      0.006600
    110 H111       84.6207   58.8792   38.8465 dc         1 CLA      0.006600
    111 H102       83.6700   56.4724   38.5873 dc         1 CLA      0.024100
    112 H101       85.1753   55.6956   38.9897 dc         1 CLA      0.024100
    113 HHD        72.1829   57.3924   39.0270 da         1 CLA      0.174300
    114 HHC        76.2574   60.4895   42.7035 da         1 CLA      0.136800
    115 HHB        80.7977   60.2248   38.1345 da         1 CLA      0.138300
    116 HBD        76.2595   57.6718   33.0626 dc         1 CLA      0.107700
    117 HAB        77.9841   62.0227   43.3795 da         1 CLA      0.155200
    118 H93        87.1402   57.4204   36.0092 dc         1 CLA      0.069500
    119 H92        87.2264   57.9435   37.7856 dc         1 CLA      0.069500
    120 H91        87.4618   56.2581   37.2971 dc         1 CLA      0.069500
    121 H8         84.8588   57.6854   36.6807 dc         1 CLA      0.029300
    122 H72        83.9940   55.2508   36.6200 dc         1 CLA      0.044400
    123 H71        85.6828   54.7261   36.5801 dc         1 CLA      0.044400
    124 H62        85.8433   56.2526   34.4065 dc         1 CLA      0.015600
    125 H61        84.1239   56.4825   34.5134 dc         1 CLA      0.015600
    126 H52        85.6295   53.8273   34.3290 dc         1 CLA      0.033200
    127 H51        84.8182   54.6541   32.9747 dc         1 CLA      0.033200
    128 H43        84.5347   52.0635   35.2825 dc         1 CLA      0.037000
    129 H42        82.8041   51.6250   34.8129 dc         1 CLA      0.037000
    130 H41        84.0873   51.8419   33.4747 dc         1 CLA      0.037000
    131 H3A        80.5618   59.6138   35.4770 dc         1 CLA      0.041100
    132 H2A        79.2670   56.9508   35.0103 dc         1 CLA      0.083100
    133 H2         81.9818   54.6962   35.3802 da         1 CLA      0.180900
    134 H18        83.6259   55.5567   45.6787 dc         1 CLA     -0.003900
    135 H13        84.1200   59.8085   41.3863 dc         1 CLA      0.019700
    136 H12        80.6715   54.2460   33.0414 dc         1 CLA      0.120400
    137 H11        82.2702   54.6033   32.2973 dc         1 CLA      0.120400
    138 C1         68.9217   60.7547   49.6769 Z1         2 LUT      0.509236
    139 C2         68.8049   61.5532   50.9558 Z2         2 LUT     -0.434695
    140 C3         67.3498   62.0865   51.0428 Z3         2 LUT      0.437453
    141 O3         67.2506   62.8296   52.2138 S1         2 LUT     -0.547129
    142 C4         66.9848   62.9801   49.8846 Z4         2 LUT     -0.468603
    143 C5         67.5624   62.6222   48.5425 Z5         2 LUT      0.279246
    144 C6         68.4424   61.6264   48.4428 Z6         2 LUT     -0.305473
    145 C7         69.0456   61.3815   47.1269 Z7         2 LUT      0.069402
    146 C8         69.8018   62.1894   46.3725 Z8         2 LUT     -0.191631
    147 C9         70.4372   61.8820   45.0337 Z9         2 LUT      0.196698
    148 C10        71.3448   62.7583   44.4486 Y1         2 LUT     -0.208611
    149 C11        71.9653   62.6084   43.1499 Y2         2 LUT      0.030784
    150 C12        73.1409   63.1620   42.8497 Y3         2 LUT     -0.220316
    151 C13        73.9444   63.0162   41.6682 Y4         2 LUT      0.215937
    152 C14        75.0876   63.7717   41.5890 Y5         2 LUT     -0.185793
    153 C15        76.2042   63.7158   40.7275 Y6         2 LUT     -0.057835
    154 C16        68.1520   59.4502   49.8595 Y7         2 LUT     -0.405615
    155 C17        70.4312   60.3637   49.6945 Y7         2 LUT     -0.405615
    156 C18        67.1056   63.6816   47.4921 Y9         2 LUT     -0.369639
    157 C19        69.9045   60.7369   44.1632 W1         2 LUT     -0.333362
    158 C20        73.3983   62.3686   40.4406 W2         2 LUT     -0.323439
    159 C21        87.6787   65.6620   34.7885 Z1         2 LUT      0.406104
    160 C22        88.1939   65.1865   33.4396 Z2         2 LUT     -0.404965
    161 C23        88.0473   66.2149   32.2903 Z3         2 LUT      0.391255
    162 O23        87.9783   65.5100   31.0378 S1         2 LUT     -0.528210
    163 C24        86.8444   67.0457   32.4283 W6         2 LUT     -0.258361
    164 C25        85.8303   66.8624   33.2849 Z5         2 LUT      0.133546
    165 C26        86.1239   65.9904   34.5901 W8         2 LUT     -0.147008
    166 C27        85.4008   66.3307   35.8963 Z7         2 LUT      0.023843
    167 C28        84.0677   66.2081   36.0290 Z8         2 LUT     -0.216987
    168 C29        83.3577   66.5513   37.2469 Z9         2 LUT      0.206524
    169 C30        82.3967   65.7738   37.7318 Y1         2 LUT     -0.215556
    170 C31        81.7135   65.9346   38.9763 Y2         2 LUT      0.025142
    171 C32        80.6771   65.0980   39.1622 Y3         2 LUT     -0.212209
    172 C33        79.7038   65.0993   40.2721 Y4         2 LUT      0.240937
    173 C34        78.5350   64.3730   40.1842 Y5         2 LUT     -0.218862
    174 C35        77.4321   64.3749   40.9993 Y6         2 LUT     -0.023547
    175 C36        88.6587   66.8015   35.3693 Y7         2 LUT     -0.393485
    176 C37        87.9596   64.4501   35.7645 Y7         2 LUT     -0.393485
    177 C38        84.5361   67.6412   33.1730 Y9         2 LUT     -0.387526
    178 C39        83.8824   67.7450   38.0578 W1         2 LUT     -0.322618
    179 C40        80.2579   65.6610   41.5262 W2         2 LUT     -0.358472
    180 H403       81.3395   65.6797   41.7039 R7         2 LUT      0.097720
    181 H402       79.9239   66.6764   41.7794 R7         2 LUT      0.097720
    182 H401       79.8255   65.1246   42.3955 R7         2 LUT      0.097720
    183 H393       83.0525   68.3114   38.5299 R4         2 LUT      0.082505
    184 H392       84.6527   67.3940   38.6795 R4         2 LUT      0.082505
    185 H391       84.3224   68.4224   37.3514 R4         2 LUT      0.082505
    186 H383       84.4926   68.1845   32.1604 R1         2 LUT      0.104030
    187 H382       83.6724   66.8582   33.3397 R1         2 LUT      0.104030
    188 H381       84.5265   68.3235   33.9629 R1         2 LUT      0.104030
    189 H373       87.3192   63.5683   35.5883 T4         2 LUT      0.089537
    190 H372       88.9003   63.9917   35.6226 T4         2 LUT      0.089537
    191 H371       87.8677   64.7591   36.8113 T4         2 LUT      0.089537
    192 H363       88.4786   67.1352   36.4053 T4         2 LUT      0.089537
    193 H362       89.6547   66.3084   35.3994 T4         2 LUT      0.089537
    194 H361       88.7948   67.6871   34.7703 T4         2 LUT      0.089537
    195 H222       89.2812   64.7547   33.4966 U2         2 LUT      0.127376
    196 H221       87.6272   64.4063   33.0586 U2         2 LUT      0.127376
    197 H203       73.0522   61.3134   40.6243 R7         2 LUT      0.087068
    198 H202       72.5723   62.9357   40.0043 R7         2 LUT      0.087068
    199 H201       74.1792   62.2927   39.6085 R7         2 LUT      0.087068
    200 H193       69.4048   61.1185   43.2482 R4         2 LUT      0.089716
    201 H192       70.7183   60.0550   43.8910 R4         2 LUT      0.089716
    202 H191       69.1826   60.1687   44.6610 R4         2 LUT      0.089716
    203 H183       66.0245   63.8107   47.6888 R1         2 LUT      0.094572
    204 H182       67.6503   64.6083   47.5466 R1         2 LUT      0.094572
    205 H181       67.1258   63.2533   46.4699 R1         2 LUT      0.094572
    206 H173       70.6923   59.6291   50.5426 T4         2 LUT      0.093752
    207 H172       70.7469   59.7847   48.7875 T4         2 LUT      0.093752
    208 H171       71.1352   61.1950   49.8197 T4         2 LUT      0.093752
    209 H163       68.4086   58.9197   50.7459 T4         2 LUT      0.093752
    210 H162       67.0753   59.5296   49.6749 T4         2 LUT      0.093752
    211 H161       68.5329   58.8778   49.0260 T4         2 LUT      0.093752
    212 HO3        67.0025   62.4574   53.0176 Q1         2 LUT      0.300121
    213 H8         70.0320   63.1809   46.6871 U7         2 LUT      0.080784
    214 H7         68.8989   60.3889   46.7468 U6         2 LUT      0.042190
    215 H42        65.8616   63.1085   49.7268 U5         2 LUT      0.145166
    216 H41        67.1515   64.0153   50.1280 U5         2 LUT      0.145166
    217 H35        77.4701   64.8383   41.9325 T3         2 LUT      0.077919
    218 H34        78.4886   63.9093   39.1670 T2         2 LUT      0.073626
    219 H32        80.4352   64.4771   38.3000 T1         2 LUT      0.092510
    220 H31        81.9576   66.6078   39.7592 U9         2 LUT      0.070048
    221 H30        82.2373   64.8786   37.0507 U8         2 LUT      0.085442
    222 H3         66.6156   61.2533   50.9133 U3         2 LUT     -0.031596
    223 H28        83.6125   65.5901   35.3576 U7         2 LUT      0.084728
    224 H27        86.0267   66.8447   36.6247 U6         2 LUT      0.087291
    225 H26        85.5883   65.1530   34.2246 Q6         2 LUT      0.075325
    226 H24        86.7309   67.7183   31.5499 Q5         2 LUT      0.094482
    227 H23        88.8837   66.9024   32.3157 U3         2 LUT     -0.024869
    228 H22        68.9693   60.9260   51.8375 U2         2 LUT      0.127376
    229 H21        69.4304   62.3925   50.9759 U2         2 LUT      0.127376
    230 H15        76.1624   63.2321   39.8228 T3         2 LUT      0.093200
    231 H14        75.1946   64.4063   42.4323 T2         2 LUT      0.068865
    232 H12        73.6338   63.8236   43.5998 T1         2 LUT      0.095507
    233 H11        71.5141   61.9329   42.4024 U9         2 LUT      0.068930
    234 H10        71.7116   63.6246   45.0534 U8         2 LUT      0.083911
    235 H1         88.6802   65.7226   30.4431 Q1         2 LUT      0.297311
@<TRIPOS>BOND
    1     6     1 1
    2     7     2 1
    3     8     3 1
    4     9     4 1
    5    11     4 1
    6    12     6 1
    7    13     9 1
    8    16     9 1
    9    25     5 1
   10    25    16 1
   11    26    10 1
   12    26    17 1
   13    27    18 1
   14    28    14 1
   15    28    19 1
   16    29    12 1
   17    30    13 1
   18    31    24 1
   19    32     1 1
   20    32    25 1
   21    33    21 1
   22    33    26 1
   23    34    22 1
   24    34    27 1
   25    35    23 1
   26    35    28 1
   27    36    12 1
   28    36    24 1
   29    37    13 1
   30    37    15 1
   31    38    31 1
   32    39    20 1
   33    39    32 1
   34    40     2 1
   35    40    33 1
   36    41     3 1
   37    41    34 1
   38    42     4 1
   39    42    35 1
   40    43    38 1
   41    44     5 1
   42    44    17 1
   43    44    39 1
   44    45    10 1
   45    45    18 1
   46    45    40 1
   47    46    19 1
   48    46    41 1
   49    47    14 1
   50    47    16 1
   51    47    42 1
   52    48    38 1
   53    49    48 1
   54    50    49 1
   55    51    50 1
   56    52    51 1
   57    53    51 1
   58    54    53 1
   59    55    54 1
   60    56    55 1
   61    57    56 1
   62    58    56 1
   63    59    58 1
   64    60    59 1
   65    61    60 1
   66    62    61 1
   67    63    61 1
   68    64    27 1
   69    64    46 1
   70    65     5 1
   71    65    10 1
   72    65    64 1
   73    65    14 1
   74    66    23 1
   75    67    23 1
   76    68    23 1
   77    69    22 1
   78    70    22 1
   79    71    22 1
   80    72    21 1
   81    73    21 1
   82    74    21 1
   83    75    20 1
   84    76    20 1
   85    77    20 1
   86    78    15 1
   87    79    15 1
   88    80    15 1
   89    81     8 1
   90    82     8 1
   91    83     8 1
   92    84     7 1
   93    85     7 1
   94    86     6 1
   95    87     6 1
   96    88     3 1
   97    89     3 1
   98    90     1 1
   99    91     1 1
  100    92    63 1
  101    93    63 1
  102    94    63 1
  103    95    62 1
  104    96    62 1
  105    97    62 1
  106    98    60 1
  107    99    60 1
  108   100    59 1
  109   101    59 1
  110   102    58 1
  111   103    58 1
  112   104    57 1
  113   105    57 1
  114   106    57 1
  115   107    55 1
  116   108    55 1
  117   109    54 1
  118   110    54 1
  119   111    53 1
  120   112    53 1
  121   113    19 1
  122   114    18 1
  123   115    17 1
  124   116     9 1
  125   117     2 1
  126   118    52 1
  127   119    52 1
  128   120    52 1
  129   121    51 1
  130   122    50 1
  131   123    50 1
  132   124    49 1
  133   125    49 1
  134   126    48 1
  135   127    48 1
  136   128    43 1
  137   129    43 1
  138   130    43 1
  139   131    39 1
  140   132    32 1
  141   133    31 1
  142   134    61 1
  143   135    56 1
  144   136    24 1
  145   137    24 1
  146   139   138 1
  147   140   139 1
  148   141   140 1
  149   142   140 1
  150   143   142 1
  151   144   138 1
  152   144   143 1
  153   145   144 1
  154   146   145 1
  155   147   146 1
  156   148   147 1
  157   149   148 1
  158   150   149 1
  159   151   150 1
  160   152   151 1
  161   153   152 1
  162   154   138 1
  163   155   138 1
  164   156   143 1
  165   157   147 1
  166   158   151 1
  167   160   159 1
  168   161   160 1
  169   162   161 1
  170   163   161 1
  171   164   163 1
  172   165   159 1
  173   165   164 1
  174   166   165 1
  175   167   166 1
  176   168   167 1
  177   169   168 1
  178   170   169 1
  179   171   170 1
  180   172   171 1
  181   173   172 1
  182   174   153 1
  183   174   173 1
  184   175   159 1
  185   176   159 1
  186   177   164 1
  187   178   168 1
  188   179   172 1
  189   180   179 1
  190   181   179 1
  191   182   179 1
  192   183   178 1
  193   184   178 1
  194   185   178 1
  195   186   177 1
  196   187   177 1
  197   188   177 1
  198   189   176 1
  199   190   176 1
  200   191   176 1
  201   192   175 1
  202   193   175 1
  203   194   175 1
  204   195   160 1
  205   196   160 1
  206   197   158 1
  207   198   158 1
  208   199   158 1
  209   200   157 1
  210   201   157 1
  211   202   157 1
  212   203   156 1
  213   204   156 1
  214   205   156 1
  215   206   155 1
  216   207   155 1
  217   208   155 1
  218   209   154 1
  219   210   154 1
  220   211   154 1
  221   212   141 1
  222   213   146 1
  223   214   145 1
  224   215   142 1
  225   216   142 1
  226   217   174 1
  227   218   173 1
  228   219   171 1
  229   220   170 1
  230   221   169 1
  231   222   140 1
  232   223   167 1
  233   224   166 1
  234   225   165 1
  235   226   163 1
  236   227   161 1
  237   228   139 1
  238   229   139 1
  239   230   153 1
  240   231   152 1
  241   232   150 1
  242   233   149 1
  243   234   148 1
  244   235   162 1
  245   65    153 1
  246   65    174 1
@<TRIPOS>SUBSTRUCTURE
      1 CLA               1 ****               0 ****  **** 
      2 LUT             138 ****               0 ****  **** 
