@<TRIPOS>MOLECULE
Cpptraj generated mol2 file.
  235   246     2     0     0
SMALL
USER_CHARGES


@<TRIPOS>ATOM
      1 CAA        79.2020   59.1559   34.0328 a2         1 CLA     -0.055900
      2 CAB        79.0231   61.7443   43.3163 c8         1 CLA     -0.148500
      3 CAC        72.1659   57.5990   42.5391 a2         1 CLA     -0.012600
      4 CAD        75.0460   56.2382   34.8794 ck         1 CLA      0.398800
      5 NA         78.0961   59.1193   37.3997 ns         1 CLA     -0.225500
      6 CBA        80.5051   59.0010   33.1872 a2         1 CLA     -0.135000
      7 CBB        79.7234   62.8034   43.7475 c0         1 CLA     -0.395200
      8 CBC        72.3539   56.0919   42.4001 a3         1 CLA     -0.037700
      9 CBD        76.5076   56.8686   34.6554 a1         1 CLA     -0.053900
     10 NB         77.8370   60.2981   40.1273 nm         1 CLA     -0.295700
     11 OBD        74.4582   55.5192   34.0645 o2         1 CLA     -0.494600
     12 CGA        80.8884   57.5135   32.8712 c4         1 CLA      0.827000
     13 CGD        77.4604   55.7351   34.3377 c4         1 CLA      0.655300
     14 ND         75.3710   58.0051   37.8899 nm         1 CLA     -0.291600
     15 CED        78.3642   53.6090   35.0263 a3         1 CLA      0.005400
     16 CHA        76.8129   57.7001   35.8828 cs         1 CLA     -0.123800
     17 CHB        79.7924   60.3432   38.5805 aa         1 CLA     -0.291900
     18 CHC        76.5240   60.2853   42.2773 aa         1 CLA     -0.090400
     19 CHD        73.4646   57.5903   39.5451 aa         1 CLA     -0.052000
     20 CMA        81.5732   58.6763   36.6917 a3         1 CLA     -0.230700
     21 CMB        81.0948   61.7476   40.9671 a3         1 CLA     -0.180800
     22 CMC        74.4821   59.1083   44.2415 a3         1 CLA     -0.134000
     23 CMD        72.3299   55.8956   37.0667 a3         1 CLA     -0.141100
     24 C1         82.0023   55.5440   33.6690 a2         1 CLA      0.023000
     25 C1A        77.9605   58.4606   36.2203 ac         1 CLA     -0.015100
     26 C1B        79.1382   60.6213   39.8010 cr         1 CLA      0.054700
     27 C1C        75.3671   59.5479   41.9058 cn         1 CLA     -0.005600
     28 C1D        74.1381   57.4676   38.2702 ap         1 CLA     -0.047300
     29 O1A        80.7202   56.9258   31.8092 o2         1 CLA     -0.610800
     30 O1D        78.3924   55.8061   33.5105 o2         1 CLA     -0.558200
     31 C2         82.7476   55.0306   34.9249 c8         1 CLA     -0.325100
     32 C2A        79.2897   58.4596   35.3817 a1         1 CLA      0.098600
     33 C2B        79.7750   61.2731   40.9294 cb         1 CLA      0.088500
     34 C2C        74.3499   59.0450   42.8108 cb         1 CLA      0.053700
     35 C2D        73.6014   56.6941   37.1085 cb         1 CLA      0.058900
     36 O2A        81.4663   56.8957   33.9794 o1         1 CLA     -0.437200
     37 O2D        77.2616   54.6228   35.1910 o1         1 CLA     -0.357600
     38 C3         83.8620   54.2742   34.8625 c5         1 CLA      0.031200
     39 C3A        80.1966   59.3708   36.3130 a1         1 CLA      0.166800
     40 C3B        78.8639   61.2670   41.9273 cb         1 CLA      0.035000
     41 C3C        73.4224   58.3554   42.0647 cb         1 CLA     -0.089900
     42 C3D        74.6531   56.7564   36.1262 cb         1 CLA     -0.035900
     43 C4         83.7093   52.7298   34.6477 a3         1 CLA     -0.053300
     44 C4A        79.2916   59.6778   37.4845 ac         1 CLA      0.001800
     45 C4B        77.6356   60.5801   41.4602 cn         1 CLA     -0.020900
     46 C4C        73.9109   58.3442   40.6951 cr         1 CLA     -0.044400
     47 C4D        75.6438   57.6018   36.6821 c6         1 CLA     -0.046000
     48 C5         85.1677   54.9531   34.5911 a2         1 CLA     -0.070400
     49 C6         85.5222   56.2714   35.2564 a2         1 CLA      0.043900
     50 C7         85.7638   55.9119   36.7206 a2         1 CLA     -0.150000
     51 C8         85.8806   57.0749   37.7762 a1         1 CLA      0.064200
     52 C9         86.9648   58.1333   37.4653 a3         1 CLA     -0.259300
     53 C10        86.0681   56.5246   39.2077 a2         1 CLA     -0.071900
     54 C11        86.1883   57.6220   40.3383 a2         1 CLA      0.014500
     55 C12        86.0645   57.0719   41.7975 a2         1 CLA     -0.112100
     56 C13        86.2062   58.2061   42.8728 a1         1 CLA      0.089200
     57 C14        87.6670   58.7605   42.9466 a3         1 CLA     -0.239100
     58 C15        85.8148   57.7302   44.3381 a2         1 CLA     -0.102200
     59 C16        85.7517   58.8674   45.3606 a2         1 CLA      0.023900
     60 C17        85.3545   58.1917   46.6404 a2         1 CLA     -0.105700
     61 C18        85.4521   59.0816   47.9031 a1         1 CLA      0.206800
     62 C19        84.6575   60.3775   47.8011 a3         1 CLA     -0.280100
     63 C20        85.0640   58.3476   49.2411 a3         1 CLA     -0.280100
     64 NC         75.0677   59.0476   40.6617 nx         1 CLA     -0.309200
     65 MG         76.5046   59.2577   38.9854 mg         1 CLA      0.895000
     66 HMD3       72.3444   55.3817   38.0136 dc         1 CLA      0.064300
     67 HMD2       71.4566   56.5528   37.0588 dc         1 CLA      0.064300
     68 HMD1       72.3703   55.2980   36.1738 dc         1 CLA      0.064300
     69 HMC3       75.3445   58.4983   44.5030 dc         1 CLA      0.052100
     70 HMC2       74.6484   60.1619   44.5592 dc         1 CLA      0.052100
     71 HMC1       73.5456   58.6201   44.6649 dc         1 CLA      0.052100
     72 HMB3       81.4738   61.6565   41.9722 dc         1 CLA      0.063600
     73 HMB2       81.7266   61.0395   40.4399 dc         1 CLA      0.063600
     74 HMB1       81.1527   62.8111   40.6481 dc         1 CLA      0.063600
     75 HMA3       82.2417   58.6595   35.8489 dc         1 CLA      0.058300
     76 HMA2       82.0918   59.2446   37.5140 dc         1 CLA      0.058300
     77 HMA1       81.4406   57.6435   36.9674 dc         1 CLA      0.058300
     78 HED3       78.1706   53.1286   34.0467 dc         1 CLA      0.079300
     79 HED2       79.3604   54.0006   35.1663 dc         1 CLA      0.079300
     80 HED1       78.2075   52.8130   35.7650 dc         1 CLA      0.079300
     81 HBC3       72.1494   55.7479   41.3642 dc         1 CLA      0.016300
     82 HBC2       73.3617   55.7821   42.5901 dc         1 CLA      0.016300
     83 HBC1       71.6457   55.6347   43.0414 dc         1 CLA      0.016300
     84 HBB2       79.7572   62.9684   44.8622 da         1 CLA      0.183000
     85 HBB1       80.3446   63.3965   43.0076 da         1 CLA      0.183000
     86 HBA2       80.2100   59.5829   32.2769 dc         1 CLA      0.029400
     87 HBA1       81.3326   59.4547   33.7357 dc         1 CLA      0.029400
     88 HAC2       71.9789   57.8251   43.5850 dc         1 CLA      0.029300
     89 HAC1       71.2909   57.9027   41.9377 dc         1 CLA      0.029300
     90 HAA2       78.3854   58.6717   33.4656 dc         1 CLA      0.028700
     91 HAA1       78.8384   60.2304   34.1105 dc         1 CLA      0.028700
     92 H203       83.9545   58.4434   49.2536 dc         1 CLA      0.065600
     93 H202       85.3702   57.3471   49.1277 dc         1 CLA      0.065600
     94 H201       85.6401   58.6616   50.1725 dc         1 CLA      0.065600
     95 H193       83.6606   60.3014   47.4570 dc         1 CLA      0.065600
     96 H192       84.6054   60.8887   48.7794 dc         1 CLA      0.065600
     97 H191       85.3251   61.0307   47.2935 dc         1 CLA      0.065600
     98 H172       84.2895   57.9408   46.5724 dc         1 CLA      0.027600
     99 H171       85.9305   57.2413   46.8913 dc         1 CLA      0.027600
    100 H162       86.7543   59.1984   45.5033 dc         1 CLA      0.002900
    101 H161       85.0241   59.6196   45.0260 dc         1 CLA      0.002900
    102 H152       84.8916   57.2661   44.2088 dc         1 CLA      0.029100
    103 H151       86.5497   56.9515   44.6208 dc         1 CLA      0.029100
    104 H143       87.7990   59.5273   43.7455 dc         1 CLA      0.063600
    105 H142       88.3390   57.9142   43.1573 dc         1 CLA      0.063600
    106 H141       87.8118   59.2137   41.9985 dc         1 CLA      0.063600
    107 H122       85.1456   56.4948   41.9446 dc         1 CLA      0.032500
    108 H121       86.9500   56.4000   41.8683 dc         1 CLA      0.032500
    109 H112       87.1556   58.1324   40.2309 dc         1 CLA      0.006600
    110 H111       85.3776   58.2882   40.1388 dc         1 CLA      0.006600
    111 H102       85.2421   55.9214   39.5009 dc         1 CLA      0.024100
    112 H101       87.0286   56.0169   39.3633 dc         1 CLA      0.024100
    113 HHD        72.4954   57.0901   39.6440 da         1 CLA      0.174300
    114 HHC        76.5422   60.6073   43.3472 da         1 CLA      0.136800
    115 HHB        80.8440   60.6386   38.5067 da         1 CLA      0.138300
    116 HBD        76.3703   57.4988   33.6907 dc         1 CLA      0.107700
    117 HAB        78.4937   61.1374   43.9995 da         1 CLA      0.155200
    118 H93        87.0300   58.8735   38.2397 dc         1 CLA      0.069500
    119 H92        87.9232   57.6237   37.5155 dc         1 CLA      0.069500
    120 H91        86.7137   58.6208   36.5102 dc         1 CLA      0.069500
    121 H8         84.8863   57.5974   37.7952 dc         1 CLA      0.029300
    122 H72        84.9263   55.3430   37.1312 dc         1 CLA      0.044400
    123 H71        86.6284   55.3070   36.8263 dc         1 CLA      0.044400
    124 H62        86.5024   56.6628   34.8700 dc         1 CLA      0.015600
    125 H61        84.7111   57.0128   35.1371 dc         1 CLA      0.015600
    126 H52        85.9359   54.1680   34.6055 dc         1 CLA      0.033200
    127 H51        85.0233   55.3038   33.5645 dc         1 CLA      0.033200
    128 H43        84.0769   52.5707   33.6759 dc         1 CLA      0.037000
    129 H42        84.3349   52.1612   35.3222 dc         1 CLA      0.037000
    130 H41        82.6435   52.4892   34.8038 dc         1 CLA      0.037000
    131 H3A        80.5620   60.2759   35.7905 dc         1 CLA      0.041100
    132 H2A        79.5291   57.4594   35.2528 dc         1 CLA      0.083100
    133 H2         82.4621   55.3668   35.9386 da         1 CLA      0.180900
    134 H18        86.5213   59.2995   47.9966 dc         1 CLA     -0.003900
    135 H13        85.6030   59.0303   42.5850 dc         1 CLA      0.019700
    136 H12        81.0605   54.9038   33.5239 dc         1 CLA      0.120400
    137 H11        82.7075   55.4920   32.8279 dc         1 CLA      0.120400
    138 C1         69.2702   61.6387   49.5267 Z1         2 LUT      0.509236
    139 C2         67.9517   61.2052   50.2125 Z2         2 LUT     -0.434695
    140 C3         67.0944   62.3502   50.7269 Z3         2 LUT      0.437453
    141 O3         67.4374   62.7736   52.0160 S1         2 LUT     -0.547129
    142 C4         67.0395   63.4865   49.8646 Z4         2 LUT     -0.468603
    143 C5         67.7984   63.4794   48.6063 Z5         2 LUT      0.279246
    144 C6         68.7797   62.6020   48.4104 Z6         2 LUT     -0.305473
    145 C7         69.3069   62.3808   47.0092 Z7         2 LUT      0.069402
    146 C8         70.5915   62.1894   46.6265 Z8         2 LUT     -0.191631
    147 C9         71.0297   61.8897   45.2533 Z9         2 LUT      0.196698
    148 C10        72.2288   62.4617   44.8942 Y1         2 LUT     -0.208611
    149 C11        72.9020   62.4655   43.6795 Y2         2 LUT      0.030784
    150 C12        73.9609   63.2666   43.3447 Y3         2 LUT     -0.220316
    151 C13        74.6945   63.2285   42.0153 Y4         2 LUT      0.215937
    152 C14        76.0070   63.8133   41.9345 Y5         2 LUT     -0.185793
    153 C15        77.0554   63.8756   41.0027 Y6         2 LUT     -0.057835
    154 C16        69.8051   60.2360   49.0253 Y7         2 LUT     -0.405615
    155 C17        70.0534   62.3671   50.6897 Y7         2 LUT     -0.405615
    156 C18        67.1721   64.3448   47.5025 Y9         2 LUT     -0.369639
    157 C19        70.1447   61.1830   44.2375 W1         2 LUT     -0.333362
    158 C20        73.9909   62.5823   40.8311 W2         2 LUT     -0.323439
    159 C21        88.3858   65.8171   35.0959 Z1         2 LUT      0.406104
    160 C22        89.1957   65.4644   33.8094 Z2         2 LUT     -0.404965
    161 C23        89.2359   66.4302   32.6889 Z3         2 LUT      0.391255
    162 O23        89.9464   65.7889   31.6003 S1         2 LUT     -0.528210
    163 C24        87.8247   66.9885   32.5322 W6         2 LUT     -0.258361
    164 C25        86.7761   66.8936   33.3287 Z5         2 LUT      0.133546
    165 C26        86.9109   66.2293   34.6593 W8         2 LUT     -0.147008
    166 C27        86.1503   66.9767   35.7158 Z7         2 LUT      0.023843
    167 C28        84.9492   66.5222   36.1912 Z8         2 LUT     -0.216987
    168 C29        84.0892   66.9679   37.4036 Z9         2 LUT      0.206524
    169 C30        82.9734   66.1895   37.6735 Y1         2 LUT     -0.215556
    170 C31        82.1873   66.3847   38.8627 Y2         2 LUT      0.025142
    171 C32        81.0861   65.6642   39.0821 Y3         2 LUT     -0.212209
    172 C33        80.2318   65.7177   40.3319 Y4         2 LUT      0.240937
    173 C34        79.1755   64.8128   40.3303 Y5         2 LUT     -0.218862
    174 C35        78.1837   64.5079   41.2990 Y6         2 LUT     -0.023547
    175 C36        89.2673   66.8932   35.8337 Y7         2 LUT     -0.393485
    176 C37        88.2798   64.5812   36.1074 Y7         2 LUT     -0.393485
    177 C38        85.4698   67.5054   33.0011 Y9         2 LUT     -0.387526
    178 C39        84.6027   68.1945   38.1911 W1         2 LUT     -0.322618
    179 C40        80.5417   66.6330   41.4964 W2         2 LUT     -0.358472
    180 H403       80.7922   67.6645   41.2910 R7         2 LUT      0.097720
    181 H402       79.6069   66.6396   42.1419 R7         2 LUT      0.097720
    182 H401       81.3567   66.2595   42.1294 R7         2 LUT      0.097720
    183 H393       85.0579   68.9711   37.6586 R4         2 LUT      0.082505
    184 H392       83.7290   68.7363   38.5604 R4         2 LUT      0.082505
    185 H391       85.2458   67.7177   38.9727 R4         2 LUT      0.082505
    186 H383       85.5595   68.1943   32.1572 R1         2 LUT      0.104030
    187 H382       84.7518   66.6011   32.8456 R1         2 LUT      0.104030
    188 H381       85.1013   68.0831   33.8140 R1         2 LUT      0.104030
    189 H373       88.0518   63.7102   35.5307 T4         2 LUT      0.089537
    190 H372       89.2661   64.2277   36.5143 T4         2 LUT      0.089537
    191 H371       87.5494   64.6955   36.9679 T4         2 LUT      0.089537
    192 H363       88.6795   67.1961   36.7078 T4         2 LUT      0.089537
    193 H362       90.2793   66.6207   36.2035 T4         2 LUT      0.089537
    194 H361       89.3286   67.7847   35.2129 T4         2 LUT      0.089537
    195 H222       90.2518   65.2922   33.9952 U2         2 LUT      0.127376
    196 H221       88.6996   64.5654   33.2806 U2         2 LUT      0.127376
    197 H203       73.9146   61.5234   41.0656 R7         2 LUT      0.087068
    198 H202       72.9317   62.9616   40.6033 R7         2 LUT      0.087068
    199 H201       74.5219   62.4922   39.8936 R7         2 LUT      0.087068
    200 H193       69.9625   61.7296   43.2884 R4         2 LUT      0.089716
    201 H192       70.5810   60.2909   43.8138 R4         2 LUT      0.089716
    202 H191       69.1024   61.0006   44.5785 R4         2 LUT      0.089716
    203 H183       66.1566   64.7235   47.8032 R1         2 LUT      0.094572
    204 H182       67.8865   65.1542   47.3928 R1         2 LUT      0.094572
    205 H181       67.0151   63.8562   46.5278 R1         2 LUT      0.094572
    206 H173       71.0006   62.3806   50.2800 T4         2 LUT      0.093752
    207 H172       69.6780   63.3925   50.9262 T4         2 LUT      0.093752
    208 H171       70.2485   61.7803   51.5752 T4         2 LUT      0.093752
    209 H163       69.1235   59.5982   48.4216 T4         2 LUT      0.093752
    210 H162       70.7337   60.3035   48.4431 T4         2 LUT      0.093752
    211 H161       69.9690   59.6225   49.9445 T4         2 LUT      0.093752
    212 HO3        67.0362   62.2300   52.6893 Q1         2 LUT      0.300121
    213 H8         71.1606   62.6477   47.4168 U7         2 LUT      0.080784
    214 H7         68.5280   62.2052   46.2232 U6         2 LUT      0.042190
    215 H42        65.9888   63.5002   49.5914 U5         2 LUT      0.145166
    216 H41        67.2442   64.4552   50.3140 U5         2 LUT      0.145166
    217 H35        78.3939   64.8473   42.2859 T3         2 LUT      0.077919
    218 H34        78.8510   64.4252   39.3894 T2         2 LUT      0.073626
    219 H32        80.9514   64.7704   38.4305 T1         2 LUT      0.092510
    220 H31        82.4455   67.0868   39.5904 U9         2 LUT      0.070048
    221 H30        82.8644   65.4069   36.9540 U8         2 LUT      0.085442
    222 H3         66.0460   61.9447   50.9201 U3         2 LUT     -0.031596
    223 H28        84.4916   65.6810   35.6999 U7         2 LUT      0.084728
    224 H27        86.5798   67.7625   36.3755 U6         2 LUT      0.087291
    225 H26        86.3055   65.3005   34.5653 Q6         2 LUT      0.075325
    226 H24        87.6287   67.4510   31.5686 Q5         2 LUT      0.094482
    227 H23        89.8833   67.2499   32.9472 U3         2 LUT     -0.024869
    228 H22        67.3712   60.6836   49.5065 U2         2 LUT      0.127376
    229 H21        67.9914   60.5270   51.0586 U2         2 LUT      0.127376
    230 H15        76.8419   63.4930   40.0536 T3         2 LUT      0.093200
    231 H14        76.3774   64.2989   42.8737 T2         2 LUT      0.068865
    232 H12        74.2891   63.9427   44.0840 T1         2 LUT      0.095507
    233 H11        72.5302   61.7744   42.8950 U9         2 LUT      0.068930
    234 H10        72.7435   63.1024   45.5992 U8         2 LUT      0.083911
    235 H1         89.5042   65.9675   30.7549 Q1         2 LUT      0.297311
@<TRIPOS>BOND
    1     6     1 1
    2     7     2 1
    3     8     3 1
    4     9     4 1
    5    11     4 1
    6    12     6 1
    7    13     9 1
    8    16     9 1
    9    25     5 1
   10    25    16 1
   11    26    10 1
   12    26    17 1
   13    27    18 1
   14    28    14 1
   15    28    19 1
   16    29    12 1
   17    30    13 1
   18    31    24 1
   19    32     1 1
   20    32    25 1
   21    33    21 1
   22    33    26 1
   23    34    22 1
   24    34    27 1
   25    35    23 1
   26    35    28 1
   27    36    12 1
   28    36    24 1
   29    37    13 1
   30    37    15 1
   31    38    31 1
   32    39    20 1
   33    39    32 1
   34    40     2 1
   35    40    33 1
   36    41     3 1
   37    41    34 1
   38    42     4 1
   39    42    35 1
   40    43    38 1
   41    44     5 1
   42    44    17 1
   43    44    39 1
   44    45    10 1
   45    45    18 1
   46    45    40 1
   47    46    19 1
   48    46    41 1
   49    47    14 1
   50    47    16 1
   51    47    42 1
   52    48    38 1
   53    49    48 1
   54    50    49 1
   55    51    50 1
   56    52    51 1
   57    53    51 1
   58    54    53 1
   59    55    54 1
   60    56    55 1
   61    57    56 1
   62    58    56 1
   63    59    58 1
   64    60    59 1
   65    61    60 1
   66    62    61 1
   67    63    61 1
   68    64    27 1
   69    64    46 1
   70    65     5 1
   71    65    10 1
   72    65    64 1
   73    65    14 1
   74    66    23 1
   75    67    23 1
   76    68    23 1
   77    69    22 1
   78    70    22 1
   79    71    22 1
   80    72    21 1
   81    73    21 1
   82    74    21 1
   83    75    20 1
   84    76    20 1
   85    77    20 1
   86    78    15 1
   87    79    15 1
   88    80    15 1
   89    81     8 1
   90    82     8 1
   91    83     8 1
   92    84     7 1
   93    85     7 1
   94    86     6 1
   95    87     6 1
   96    88     3 1
   97    89     3 1
   98    90     1 1
   99    91     1 1
  100    92    63 1
  101    93    63 1
  102    94    63 1
  103    95    62 1
  104    96    62 1
  105    97    62 1
  106    98    60 1
  107    99    60 1
  108   100    59 1
  109   101    59 1
  110   102    58 1
  111   103    58 1
  112   104    57 1
  113   105    57 1
  114   106    57 1
  115   107    55 1
  116   108    55 1
  117   109    54 1
  118   110    54 1
  119   111    53 1
  120   112    53 1
  121   113    19 1
  122   114    18 1
  123   115    17 1
  124   116     9 1
  125   117     2 1
  126   118    52 1
  127   119    52 1
  128   120    52 1
  129   121    51 1
  130   122    50 1
  131   123    50 1
  132   124    49 1
  133   125    49 1
  134   126    48 1
  135   127    48 1
  136   128    43 1
  137   129    43 1
  138   130    43 1
  139   131    39 1
  140   132    32 1
  141   133    31 1
  142   134    61 1
  143   135    56 1
  144   136    24 1
  145   137    24 1
  146   139   138 1
  147   140   139 1
  148   141   140 1
  149   142   140 1
  150   143   142 1
  151   144   138 1
  152   144   143 1
  153   145   144 1
  154   146   145 1
  155   147   146 1
  156   148   147 1
  157   149   148 1
  158   150   149 1
  159   151   150 1
  160   152   151 1
  161   153   152 1
  162   154   138 1
  163   155   138 1
  164   156   143 1
  165   157   147 1
  166   158   151 1
  167   160   159 1
  168   161   160 1
  169   162   161 1
  170   163   161 1
  171   164   163 1
  172   165   159 1
  173   165   164 1
  174   166   165 1
  175   167   166 1
  176   168   167 1
  177   169   168 1
  178   170   169 1
  179   171   170 1
  180   172   171 1
  181   173   172 1
  182   174   153 1
  183   174   173 1
  184   175   159 1
  185   176   159 1
  186   177   164 1
  187   178   168 1
  188   179   172 1
  189   180   179 1
  190   181   179 1
  191   182   179 1
  192   183   178 1
  193   184   178 1
  194   185   178 1
  195   186   177 1
  196   187   177 1
  197   188   177 1
  198   189   176 1
  199   190   176 1
  200   191   176 1
  201   192   175 1
  202   193   175 1
  203   194   175 1
  204   195   160 1
  205   196   160 1
  206   197   158 1
  207   198   158 1
  208   199   158 1
  209   200   157 1
  210   201   157 1
  211   202   157 1
  212   203   156 1
  213   204   156 1
  214   205   156 1
  215   206   155 1
  216   207   155 1
  217   208   155 1
  218   209   154 1
  219   210   154 1
  220   211   154 1
  221   212   141 1
  222   213   146 1
  223   214   145 1
  224   215   142 1
  225   216   142 1
  226   217   174 1
  227   218   173 1
  228   219   171 1
  229   220   170 1
  230   221   169 1
  231   222   140 1
  232   223   167 1
  233   224   166 1
  234   225   165 1
  235   226   163 1
  236   227   161 1
  237   228   139 1
  238   229   139 1
  239   230   153 1
  240   231   152 1
  241   232   150 1
  242   233   149 1
  243   234   148 1
  244   235   162 1
  245   65    153 1
  246   65    174 1
@<TRIPOS>SUBSTRUCTURE
      1 CLA               1 ****               0 ****  **** 
      2 LUT             138 ****               0 ****  **** 
