@<TRIPOS>MOLECULE
Cpptraj generated mol2 file.
  235   246     2     0     0
SMALL
USER_CHARGES


@<TRIPOS>ATOM
      1 CAA        80.1027   59.5523   33.7722 a2         1 CLA     -0.055900
      2 CAB        79.4172   62.7572   42.8399 c8         1 CLA     -0.148500
      3 CAC        72.6474   58.2554   41.3856 a2         1 CLA     -0.012600
      4 CAD        76.0782   56.5925   34.2874 ck         1 CLA      0.398800
      5 NA         78.8806   59.5088   36.9856 ns         1 CLA     -0.225500
      6 CBA        81.2667   59.4582   32.8065 a2         1 CLA     -0.135000
      7 CBB        80.5394   63.0926   43.5255 c0         1 CLA     -0.395200
      8 CBC        72.8179   56.7519   41.6013 a3         1 CLA     -0.037700
      9 CBD        77.4782   57.2525   34.0790 a1         1 CLA     -0.053900
     10 NB         78.4089   60.9913   39.6311 nm         1 CLA     -0.295700
     11 OBD        75.6055   55.7418   33.5542 o2         1 CLA     -0.494600
     12 CGA        81.8654   58.0885   32.4020 c4         1 CLA      0.827000
     13 CGD        78.5007   56.0790   33.8780 c4         1 CLA      0.655300
     14 ND         76.1245   58.4647   37.2632 nm         1 CLA     -0.291600
     15 CED        79.6315   54.1840   34.7467 a3         1 CLA      0.005400
     16 CHA        77.7301   58.0924   35.3778 cs         1 CLA     -0.123800
     17 CHB        80.4018   60.9510   38.3478 aa         1 CLA     -0.291900
     18 CHC        76.8870   61.0855   41.5861 aa         1 CLA     -0.090400
     19 CHD        74.1603   58.1992   38.6714 aa         1 CLA     -0.052000
     20 CMA        82.3093   58.9986   36.8064 a3         1 CLA     -0.230700
     21 CMB        81.7150   62.7083   40.5028 a3         1 CLA     -0.180800
     22 CMC        74.3887   60.4603   43.2382 a3         1 CLA     -0.134000
     23 CMD        73.3197   56.1830   36.3345 a3         1 CLA     -0.141100
     24 C1         82.8773   56.1780   33.2086 a2         1 CLA      0.023000
     25 C1A        78.8817   58.8172   35.7847 ac         1 CLA     -0.015100
     26 C1B        79.7085   61.3644   39.4572 cr         1 CLA      0.054700
     27 C1C        75.8723   60.3286   41.0905 cn         1 CLA     -0.005600
     28 C1D        74.8704   57.9137   37.5138 ap         1 CLA     -0.047300
     29 O1A        81.6861   57.4978   31.3577 o2         1 CLA     -0.610800
     30 O1D        79.2345   55.9427   32.9490 o2         1 CLA     -0.558200
     31 C2         83.5960   55.8115   34.4840 c8         1 CLA     -0.325100
     32 C2A        80.2626   58.9402   35.1761 a1         1 CLA      0.098600
     33 C2B        80.2911   62.1682   40.4985 cb         1 CLA      0.088500
     34 C2C        74.6576   59.9860   41.8412 cb         1 CLA      0.053700
     35 C2D        74.5813   57.0246   36.4386 cb         1 CLA      0.058900
     36 O2A        82.5299   57.5604   33.4811 o1         1 CLA     -0.437200
     37 O2D        78.6559   55.2649   34.9900 o1         1 CLA     -0.357600
     38 C3         84.9197   55.6348   34.5849 c5         1 CLA      0.031200
     39 C3A        81.0808   59.7619   36.1759 a1         1 CLA      0.166800
     40 C3B        79.3233   62.0966   41.4737 cb         1 CLA      0.035000
     41 C3C        73.9673   58.9781   41.0591 cb         1 CLA     -0.089900
     42 C3D        75.5945   57.1142   35.5615 cb         1 CLA     -0.035900
     43 C4         85.5137   54.2269   34.3031 a3         1 CLA     -0.053300
     44 C4A        80.0529   60.2027   37.2139 ac         1 CLA      0.001800
     45 C4B        78.0944   61.3926   40.9110 cn         1 CLA     -0.020900
     46 C4C        74.6094   58.9562   39.7838 cr         1 CLA     -0.044400
     47 C4D        76.5506   58.0040   36.1368 c6         1 CLA     -0.046000
     48 C5         85.8287   56.8096   34.9067 a2         1 CLA     -0.070400
     49 C6         85.9476   57.2707   36.4101 a2         1 CLA      0.043900
     50 C7         87.0051   56.4074   37.1855 a2         1 CLA     -0.150000
     51 C8         88.3940   57.1103   37.4469 a1         1 CLA      0.064200
     52 C9         89.4842   56.5392   36.4736 a3         1 CLA     -0.259300
     53 C10        88.7629   57.1603   38.9563 a2         1 CLA     -0.071900
     54 C11        87.8990   58.1191   39.7695 a2         1 CLA      0.014500
     55 C12        88.3484   58.2853   41.1848 a2         1 CLA     -0.112100
     56 C13        87.9292   59.6422   41.8531 a1         1 CLA      0.089200
     57 C14        88.6664   60.8765   41.3057 a3         1 CLA     -0.239100
     58 C15        88.1152   59.6290   43.4251 a2         1 CLA     -0.102200
     59 C16        86.7650   59.1107   44.1270 a2         1 CLA      0.023900
     60 C17        86.8457   58.8345   45.6533 a2         1 CLA     -0.105700
     61 C18        85.5561   58.6211   46.4250 a1         1 CLA      0.206800
     62 C19        84.8508   57.4027   45.9874 a3         1 CLA     -0.280100
     63 C20        85.9875   58.5897   47.9135 a3         1 CLA     -0.280100
     64 NC         75.7735   59.7103   39.8573 nx         1 CLA     -0.309200
     65 MG         77.1829   59.7063   38.4286 mg         1 CLA      0.895000
     66 HMD3       72.5484   56.9482   36.5635 dc         1 CLA      0.064300
     67 HMD2       73.2401   55.7564   35.3363 dc         1 CLA      0.064300
     68 HMD1       73.4265   55.5563   37.2335 dc         1 CLA      0.064300
     69 HMC3       74.9542   59.8025   43.8812 dc         1 CLA      0.052100
     70 HMC2       74.8001   61.4261   43.4672 dc         1 CLA      0.052100
     71 HMC1       73.3633   60.4764   43.4484 dc         1 CLA      0.052100
     72 HMB3       81.7075   63.5546   41.1786 dc         1 CLA      0.063600
     73 HMB2       82.3835   61.9321   40.8575 dc         1 CLA      0.063600
     74 HMB1       81.9484   63.0529   39.4810 dc         1 CLA      0.063600
     75 HMA3       81.9695   58.1017   37.5171 dc         1 CLA      0.058300
     76 HMA2       82.9357   58.5617   36.0346 dc         1 CLA      0.058300
     77 HMA1       82.9151   59.7120   37.3453 dc         1 CLA      0.058300
     78 HED3       80.6699   54.6383   34.6507 dc         1 CLA      0.079300
     79 HED2       79.6259   53.5729   35.6450 dc         1 CLA      0.079300
     80 HED1       79.3110   53.4556   34.0003 dc         1 CLA      0.079300
     81 HBC3       73.1175   56.2684   40.6978 dc         1 CLA      0.016300
     82 HBC2       73.5185   56.5603   42.4308 dc         1 CLA      0.016300
     83 HBC1       71.9007   56.3462   41.9993 dc         1 CLA      0.016300
     84 HBB2       80.5706   63.6240   44.4923 da         1 CLA      0.183000
     85 HBB1       81.5771   62.8627   43.2120 da         1 CLA      0.183000
     86 HBA2       80.9425   59.8337   31.8527 dc         1 CLA      0.029400
     87 HBA1       82.0132   60.0241   33.1801 dc         1 CLA      0.029400
     88 HAC2       72.2384   58.6942   42.2453 dc         1 CLA      0.029300
     89 HAC1       71.8809   58.4673   40.6462 dc         1 CLA      0.029300
     90 HAA2       79.3394   58.9880   33.3497 dc         1 CLA      0.028700
     91 HAA1       79.7784   60.5425   33.8099 dc         1 CLA      0.028700
     92 H203       85.0905   58.4225   48.4900 dc         1 CLA      0.065600
     93 H202       86.7156   57.8858   48.1525 dc         1 CLA      0.065600
     94 H201       86.3757   59.5583   48.1725 dc         1 CLA      0.065600
     95 H193       85.4452   56.5828   46.3570 dc         1 CLA      0.065600
     96 H192       83.8513   57.4501   46.4896 dc         1 CLA      0.065600
     97 H191       84.6586   57.4835   44.9568 dc         1 CLA      0.065600
     98 H172       87.6772   58.1832   46.0480 dc         1 CLA      0.027600
     99 H171       87.0343   59.8367   45.9931 dc         1 CLA      0.027600
    100 H162       86.0687   59.8847   43.8475 dc         1 CLA      0.002900
    101 H161       86.4549   58.1036   43.7761 dc         1 CLA      0.002900
    102 H152       88.9853   59.0470   43.7373 dc         1 CLA      0.029100
    103 H151       88.1876   60.6697   43.8439 dc         1 CLA      0.029100
    104 H143       88.6027   60.9584   40.2007 dc         1 CLA      0.063600
    105 H142       88.2164   61.8099   41.5521 dc         1 CLA      0.063600
    106 H141       89.6493   60.9294   41.6741 dc         1 CLA      0.063600
    107 H122       87.9515   57.5275   41.8396 dc         1 CLA      0.032500
    108 H121       89.4268   58.1798   41.3035 dc         1 CLA      0.032500
    109 H112       87.7551   59.0958   39.3080 dc         1 CLA      0.006600
    110 H111       86.9838   57.6110   39.8515 dc         1 CLA      0.006600
    111 H102       88.7474   56.1484   39.2627 dc         1 CLA      0.024100
    112 H101       89.8377   57.5462   39.0484 dc         1 CLA      0.024100
    113 HHD        73.1886   57.7901   38.7144 da         1 CLA      0.174300
    114 HHC        76.8254   61.3446   42.5964 da         1 CLA      0.136800
    115 HHB        81.4235   61.3457   38.2332 da         1 CLA      0.138300
    116 HBD        77.4358   57.9452   33.2343 dc         1 CLA      0.107700
    117 HAB        78.4222   62.9693   43.2410 da         1 CLA      0.155200
    118 H93        89.6922   55.4290   36.7148 dc         1 CLA      0.069500
    119 H92        89.0911   56.6370   35.5245 dc         1 CLA      0.069500
    120 H91        90.4674   57.0931   36.4368 dc         1 CLA      0.069500
    121 H8         88.3258   58.1795   37.1424 dc         1 CLA      0.029300
    122 H72        86.5862   56.1595   38.1661 dc         1 CLA      0.044400
    123 H71        87.1305   55.4447   36.7728 dc         1 CLA      0.044400
    124 H62        86.3175   58.2917   36.4223 dc         1 CLA      0.015600
    125 H61        84.9814   57.1055   36.9327 dc         1 CLA      0.015600
    126 H52        86.8402   56.6011   34.4642 dc         1 CLA      0.033200
    127 H51        85.4146   57.5959   34.2929 dc         1 CLA      0.033200
    128 H43        84.8824   53.7370   33.6100 dc         1 CLA      0.037000
    129 H42        86.4286   54.4241   33.7816 dc         1 CLA      0.037000
    130 H41        85.5602   53.5772   35.2584 dc         1 CLA      0.037000
    131 H3A        81.5887   60.6628   35.8254 dc         1 CLA      0.041100
    132 H2A        80.7457   57.9658   35.0312 dc         1 CLA      0.083100
    133 H2         82.9661   55.5237   35.3550 da         1 CLA      0.180900
    134 H18        84.8785   59.4648   46.2351 dc         1 CLA     -0.003900
    135 H13        86.8849   59.6416   41.5930 dc         1 CLA      0.019700
    136 H12        82.0215   55.5008   33.1010 dc         1 CLA      0.120400
    137 H11        83.5492   56.0183   32.3555 dc         1 CLA      0.120400
    138 C1         69.3885   61.9351   49.4953 Z1         2 LUT      0.509236
    139 C2         67.9704   61.7561   50.0333 Z2         2 LUT     -0.434695
    140 C3         67.2077   62.9904   50.6125 Z3         2 LUT      0.437453
    141 O3         67.5130   63.3054   51.9720 S1         2 LUT     -0.547129
    142 C4         67.4796   64.1882   49.6757 Z4         2 LUT     -0.468603
    143 C5         68.2467   63.9406   48.4205 Z5         2 LUT      0.279246
    144 C6         69.1156   62.9303   48.3090 Z6         2 LUT     -0.305473
    145 C7         69.5813   62.3887   47.0210 Z7         2 LUT      0.069402
    146 C8         70.5446   63.0351   46.3973 Z8         2 LUT     -0.191631
    147 C9         71.0529   62.7900   45.0787 Z9         2 LUT      0.196698
    148 C10        72.1224   63.5417   44.6100 Y1         2 LUT     -0.208611
    149 C11        72.7581   63.6769   43.2642 Y2         2 LUT      0.030784
    150 C12        74.0276   64.0883   43.1762 Y3         2 LUT     -0.220316
    151 C13        74.9254   64.1593   41.9656 Y4         2 LUT      0.215937
    152 C14        76.1248   64.8400   42.1240 Y5         2 LUT     -0.185793
    153 C15        77.2802   64.9499   41.2986 Y6         2 LUT     -0.057835
    154 C16        69.9119   60.4801   49.2579 Y7         2 LUT     -0.405615
    155 C17        70.0878   62.5502   50.7223 Y7         2 LUT     -0.405615
    156 C18        67.8433   64.8439   47.2971 Y9         2 LUT     -0.369639
    157 C19        70.2463   61.9472   44.1111 W1         2 LUT     -0.333362
    158 C20        74.6347   63.3713   40.7211 W2         2 LUT     -0.323439
    159 C21        88.7069   65.7418   34.9471 Z1         2 LUT      0.406104
    160 C22        89.3587   65.1514   33.7459 Z2         2 LUT     -0.404965
    161 C23        89.5605   66.1244   32.5062 Z3         2 LUT      0.391255
    162 O23        89.8030   65.1939   31.4692 S1         2 LUT     -0.528210
    163 C24        88.3711   67.0993   32.3836 W6         2 LUT     -0.258361
    164 C25        87.3362   67.1918   33.2595 Z5         2 LUT      0.133546
    165 C26        87.2828   66.3414   34.5611 W8         2 LUT     -0.147008
    166 C27        86.6299   66.9842   35.7595 Z7         2 LUT      0.023843
    167 C28        85.5213   66.6293   36.4622 Z8         2 LUT     -0.216987
    168 C29        84.8032   67.1438   37.5629 Z9         2 LUT      0.206524
    169 C30        83.6518   66.5151   38.0044 Y1         2 LUT     -0.215556
    170 C31        82.7957   66.6924   39.1908 Y2         2 LUT      0.025142
    171 C32        81.6622   66.0354   39.4198 Y3         2 LUT     -0.212209
    172 C33        80.8377   66.1338   40.5945 Y4         2 LUT      0.240937
    173 C34        79.6392   65.4616   40.6448 Y5         2 LUT     -0.218862
    174 C35        78.5571   65.4861   41.5886 Y6         2 LUT     -0.023547
    175 C36        89.6317   66.9479   35.4873 Y7         2 LUT     -0.393485
    176 C37        88.6569   64.6754   36.0462 Y7         2 LUT     -0.393485
    177 C38        86.1989   68.1818   32.9428 Y9         2 LUT     -0.387526
    178 C39        85.3113   68.4221   38.1611 W1         2 LUT     -0.322618
    179 C40        81.3832   66.7425   41.8898 W2         2 LUT     -0.358472
    180 H403       81.1694   66.0020   42.6355 R7         2 LUT      0.097720
    181 H402       82.4675   66.8684   41.8527 R7         2 LUT      0.097720
    182 H401       80.9179   67.6166   42.3229 R7         2 LUT      0.097720
    183 H393       85.5449   69.1550   37.4063 R4         2 LUT      0.082505
    184 H392       84.5151   68.9600   38.6898 R4         2 LUT      0.082505
    185 H391       86.0683   68.2503   38.9474 R4         2 LUT      0.082505
    186 H383       86.5528   69.1478   33.1010 R1         2 LUT      0.104030
    187 H382       85.9031   68.0511   31.8962 R1         2 LUT      0.104030
    188 H381       85.3306   67.9689   33.5533 R1         2 LUT      0.104030
    189 H373       89.6578   64.3568   36.2978 T4         2 LUT      0.089537
    190 H372       88.1930   65.1281   36.9164 T4         2 LUT      0.089537
    191 H371       88.0107   63.8802   35.7118 T4         2 LUT      0.089537
    192 H363       89.7028   67.7479   34.7528 T4         2 LUT      0.089537
    193 H362       89.3179   67.3914   36.4312 T4         2 LUT      0.089537
    194 H361       90.6173   66.6014   35.5780 T4         2 LUT      0.089537
    195 H222       90.2926   64.7191   33.9421 U2         2 LUT      0.127376
    196 H221       88.6376   64.3563   33.4168 U2         2 LUT      0.127376
    197 H203       75.5831   63.0775   40.1908 R7         2 LUT      0.087068
    198 H202       74.0127   62.5849   40.9004 R7         2 LUT      0.087068
    199 H201       74.1332   64.0104   39.9947 R7         2 LUT      0.087068
    200 H193       70.4511   62.1623   43.0325 R4         2 LUT      0.089716
    201 H192       70.5463   60.8358   44.3179 R4         2 LUT      0.089716
    202 H191       69.2143   62.1205   44.1642 R4         2 LUT      0.089716
    203 H183       67.6599   64.1853   46.3773 R1         2 LUT      0.094572
    204 H182       66.8399   65.2932   47.3654 R1         2 LUT      0.094572
    205 H181       68.5220   65.6411   47.1346 R1         2 LUT      0.094572
    206 H173       70.0885   62.0243   51.6307 T4         2 LUT      0.093752
    207 H172       71.1229   62.6683   50.3883 T4         2 LUT      0.093752
    208 H171       69.7019   63.5885   50.8804 T4         2 LUT      0.093752
    209 H163       70.9491   60.4398   48.8694 T4         2 LUT      0.093752
    210 H162       70.0097   59.8180   50.1667 T4         2 LUT      0.093752
    211 H161       69.1997   59.9446   48.6125 T4         2 LUT      0.093752
    212 HO3        67.6668   62.5336   52.5952 Q1         2 LUT      0.300121
    213 H8         70.9192   63.8591   46.8995 U7         2 LUT      0.080784
    214 H7         68.9366   61.6353   46.5562 U6         2 LUT      0.042190
    215 H42        66.5586   64.6588   49.4006 U5         2 LUT      0.145166
    216 H41        67.7687   65.0408   50.3043 U5         2 LUT      0.145166
    217 H35        78.8001   65.8625   42.5602 T3         2 LUT      0.077919
    218 H34        79.3531   64.9235   39.7335 T2         2 LUT      0.073626
    219 H32        81.2295   65.3095   38.6967 T1         2 LUT      0.092510
    220 H31        83.1593   67.5053   39.8876 U9         2 LUT      0.070048
    221 H30        83.3308   65.6420   37.4368 U8         2 LUT      0.085442
    222 H3         66.1182   62.8649   50.5784 U3         2 LUT     -0.031596
    223 H28        84.8882   65.8972   35.9968 U7         2 LUT      0.084728
    224 H27        87.1481   67.9326   36.0097 U6         2 LUT      0.087291
    225 H26        86.7826   65.4279   34.1789 Q6         2 LUT      0.075325
    226 H24        88.2425   67.7238   31.5026 Q5         2 LUT      0.094482
    227 H23        90.4599   66.7404   32.8043 U3         2 LUT     -0.024869
    228 H22        67.2544   61.4185   49.2929 U2         2 LUT      0.127376
    229 H21        67.8650   60.8413   50.7347 U2         2 LUT      0.127376
    230 H15        77.1977   64.5323   40.3158 T3         2 LUT      0.093200
    231 H14        76.3664   65.3994   43.0765 T2         2 LUT      0.068865
    232 H12        74.4058   64.4636   44.1749 T1         2 LUT      0.095507
    233 H11        72.2452   63.2581   42.3789 U9         2 LUT      0.068930
    234 H10        72.6255   64.1374   45.3129 U8         2 LUT      0.083911
    235 H1         90.1081   65.6372   30.6501 Q1         2 LUT      0.297311
@<TRIPOS>BOND
    1     6     1 1
    2     7     2 1
    3     8     3 1
    4     9     4 1
    5    11     4 1
    6    12     6 1
    7    13     9 1
    8    16     9 1
    9    25     5 1
   10    25    16 1
   11    26    10 1
   12    26    17 1
   13    27    18 1
   14    28    14 1
   15    28    19 1
   16    29    12 1
   17    30    13 1
   18    31    24 1
   19    32     1 1
   20    32    25 1
   21    33    21 1
   22    33    26 1
   23    34    22 1
   24    34    27 1
   25    35    23 1
   26    35    28 1
   27    36    12 1
   28    36    24 1
   29    37    13 1
   30    37    15 1
   31    38    31 1
   32    39    20 1
   33    39    32 1
   34    40     2 1
   35    40    33 1
   36    41     3 1
   37    41    34 1
   38    42     4 1
   39    42    35 1
   40    43    38 1
   41    44     5 1
   42    44    17 1
   43    44    39 1
   44    45    10 1
   45    45    18 1
   46    45    40 1
   47    46    19 1
   48    46    41 1
   49    47    14 1
   50    47    16 1
   51    47    42 1
   52    48    38 1
   53    49    48 1
   54    50    49 1
   55    51    50 1
   56    52    51 1
   57    53    51 1
   58    54    53 1
   59    55    54 1
   60    56    55 1
   61    57    56 1
   62    58    56 1
   63    59    58 1
   64    60    59 1
   65    61    60 1
   66    62    61 1
   67    63    61 1
   68    64    27 1
   69    64    46 1
   70    65     5 1
   71    65    10 1
   72    65    64 1
   73    65    14 1
   74    66    23 1
   75    67    23 1
   76    68    23 1
   77    69    22 1
   78    70    22 1
   79    71    22 1
   80    72    21 1
   81    73    21 1
   82    74    21 1
   83    75    20 1
   84    76    20 1
   85    77    20 1
   86    78    15 1
   87    79    15 1
   88    80    15 1
   89    81     8 1
   90    82     8 1
   91    83     8 1
   92    84     7 1
   93    85     7 1
   94    86     6 1
   95    87     6 1
   96    88     3 1
   97    89     3 1
   98    90     1 1
   99    91     1 1
  100    92    63 1
  101    93    63 1
  102    94    63 1
  103    95    62 1
  104    96    62 1
  105    97    62 1
  106    98    60 1
  107    99    60 1
  108   100    59 1
  109   101    59 1
  110   102    58 1
  111   103    58 1
  112   104    57 1
  113   105    57 1
  114   106    57 1
  115   107    55 1
  116   108    55 1
  117   109    54 1
  118   110    54 1
  119   111    53 1
  120   112    53 1
  121   113    19 1
  122   114    18 1
  123   115    17 1
  124   116     9 1
  125   117     2 1
  126   118    52 1
  127   119    52 1
  128   120    52 1
  129   121    51 1
  130   122    50 1
  131   123    50 1
  132   124    49 1
  133   125    49 1
  134   126    48 1
  135   127    48 1
  136   128    43 1
  137   129    43 1
  138   130    43 1
  139   131    39 1
  140   132    32 1
  141   133    31 1
  142   134    61 1
  143   135    56 1
  144   136    24 1
  145   137    24 1
  146   139   138 1
  147   140   139 1
  148   141   140 1
  149   142   140 1
  150   143   142 1
  151   144   138 1
  152   144   143 1
  153   145   144 1
  154   146   145 1
  155   147   146 1
  156   148   147 1
  157   149   148 1
  158   150   149 1
  159   151   150 1
  160   152   151 1
  161   153   152 1
  162   154   138 1
  163   155   138 1
  164   156   143 1
  165   157   147 1
  166   158   151 1
  167   160   159 1
  168   161   160 1
  169   162   161 1
  170   163   161 1
  171   164   163 1
  172   165   159 1
  173   165   164 1
  174   166   165 1
  175   167   166 1
  176   168   167 1
  177   169   168 1
  178   170   169 1
  179   171   170 1
  180   172   171 1
  181   173   172 1
  182   174   153 1
  183   174   173 1
  184   175   159 1
  185   176   159 1
  186   177   164 1
  187   178   168 1
  188   179   172 1
  189   180   179 1
  190   181   179 1
  191   182   179 1
  192   183   178 1
  193   184   178 1
  194   185   178 1
  195   186   177 1
  196   187   177 1
  197   188   177 1
  198   189   176 1
  199   190   176 1
  200   191   176 1
  201   192   175 1
  202   193   175 1
  203   194   175 1
  204   195   160 1
  205   196   160 1
  206   197   158 1
  207   198   158 1
  208   199   158 1
  209   200   157 1
  210   201   157 1
  211   202   157 1
  212   203   156 1
  213   204   156 1
  214   205   156 1
  215   206   155 1
  216   207   155 1
  217   208   155 1
  218   209   154 1
  219   210   154 1
  220   211   154 1
  221   212   141 1
  222   213   146 1
  223   214   145 1
  224   215   142 1
  225   216   142 1
  226   217   174 1
  227   218   173 1
  228   219   171 1
  229   220   170 1
  230   221   169 1
  231   222   140 1
  232   223   167 1
  233   224   166 1
  234   225   165 1
  235   226   163 1
  236   227   161 1
  237   228   139 1
  238   229   139 1
  239   230   153 1
  240   231   152 1
  241   232   150 1
  242   233   149 1
  243   234   148 1
  244   235   162 1
  245   65    153 1
  246   65    174 1
@<TRIPOS>SUBSTRUCTURE
      1 CLA               1 ****               0 ****  **** 
      2 LUT             138 ****               0 ****  **** 
