@<TRIPOS>MOLECULE
Cpptraj generated mol2 file.
  235   246     2     0     0
SMALL
USER_CHARGES


@<TRIPOS>ATOM
      1 CAA        78.1171   58.4497   34.0721 a2         1 CLA     -0.055900
      2 CAB        78.1552   61.8666   43.1185 c8         1 CLA     -0.148500
      3 CAC        71.7014   57.5119   43.1338 a2         1 CLA     -0.012600
      4 CAD        74.0298   55.5507   35.2732 ck         1 CLA      0.398800
      5 NA         77.3335   58.4199   37.5928 ns         1 CLA     -0.225500
      6 CBA        79.3864   58.6913   33.1166 a2         1 CLA     -0.135000
      7 CBB        79.2264   61.5216   43.8518 c0         1 CLA     -0.395200
      8 CBC        71.9682   55.9582   43.2497 a3         1 CLA     -0.037700
      9 CBD        75.4744   56.1688   34.9604 a1         1 CLA     -0.053900
     10 NB         77.0359   60.1228   40.0351 nm         1 CLA     -0.295700
     11 OBD        73.3706   54.8140   34.5540 o2         1 CLA     -0.494600
     12 CGA        79.9145   57.3111   32.5702 c4         1 CLA      0.827000
     13 CGD        76.4202   55.1117   34.4669 c4         1 CLA      0.655300
     14 ND         74.5639   57.4034   38.2599 nm         1 CLA     -0.291600
     15 CED        77.1526   52.8843   34.9716 a3         1 CLA      0.005400
     16 CHA        75.9013   57.0073   36.1748 cs         1 CLA     -0.123800
     17 CHB        78.9461   60.1192   38.4870 aa         1 CLA     -0.291900
     18 CHC        75.7238   60.3498   42.0724 aa         1 CLA     -0.090400
     19 CHD        72.8145   57.2605   39.9247 aa         1 CLA     -0.052000
     20 CMA        80.6050   57.9210   36.8542 a3         1 CLA     -0.230700
     21 CMB        80.4212   61.7451   40.8511 a3         1 CLA     -0.180800
     22 CMC        73.6531   59.7751   44.3482 a3         1 CLA     -0.134000
     23 CMD        71.4494   55.4200   37.6508 a3         1 CLA     -0.141100
     24 C1         80.9741   55.2445   33.4151 a2         1 CLA      0.023000
     25 C1A        77.1237   57.6994   36.4386 ac         1 CLA     -0.015100
     26 C1B        78.3565   60.4824   39.6863 cr         1 CLA      0.054700
     27 C1C        74.7064   59.5003   41.9191 cn         1 CLA     -0.005600
     28 C1D        73.3158   56.9592   38.6185 ap         1 CLA     -0.047300
     29 O1A        79.8382   56.8653   31.4311 o2         1 CLA     -0.610800
     30 O1D        77.1649   55.1607   33.4815 o2         1 CLA     -0.558200
     31 C2         81.6785   54.6735   34.6540 c8         1 CLA     -0.325100
     32 C2A        78.3734   57.8242   35.5200 a1         1 CLA      0.098600
     33 C2B        78.9306   61.3109   40.7509 cb         1 CLA      0.088500
     34 C2C        73.6943   59.2106   42.9315 cb         1 CLA      0.053700
     35 C2D        72.7868   56.0374   37.6645 cb         1 CLA      0.058900
     36 O2A        80.4866   56.6101   33.6474 o1         1 CLA     -0.437200
     37 O2D        76.3983   54.0601   35.3359 o1         1 CLA     -0.357600
     38 C3         82.5879   53.7115   34.5717 c5         1 CLA      0.031200
     39 C3A        79.3502   58.6804   36.3395 a1         1 CLA      0.166800
     40 C3B        77.9445   61.3846   41.7608 cb         1 CLA      0.035000
     41 C3C        72.8600   58.2403   42.3595 cb         1 CLA     -0.089900
     42 C3D        73.7273   56.1137   36.6155 cb         1 CLA     -0.035900
     43 C4         82.0839   52.3008   34.7336 a3         1 CLA     -0.053300
     44 C4A        78.5267   59.1027   37.5462 ac         1 CLA      0.001800
     45 C4B        76.8102   60.7046   41.2419 cn         1 CLA     -0.020900
     46 C4C        73.4003   58.0752   40.9619 cr         1 CLA     -0.044400
     47 C4D        74.8431   56.9033   37.0674 c6         1 CLA     -0.046000
     48 C5         83.9737   53.9803   34.1684 a2         1 CLA     -0.070400
     49 C6         84.5594   55.3776   34.4171 a2         1 CLA      0.043900
     50 C7         84.6544   55.5414   35.9531 a2         1 CLA     -0.150000
     51 C8         84.7183   57.0115   36.5134 a1         1 CLA      0.064200
     52 C9         85.6478   57.8094   35.7321 a3         1 CLA     -0.259300
     53 C10        84.8533   57.2634   38.0629 a2         1 CLA     -0.071900
     54 C11        83.7613   56.6287   39.0074 a2         1 CLA      0.014500
     55 C12        83.8129   57.1896   40.4450 a2         1 CLA     -0.112100
     56 C13        82.7572   56.7178   41.4120 a1         1 CLA      0.089200
     57 C14        81.3858   57.4197   41.2392 a3         1 CLA     -0.239100
     58 C15        83.1831   56.8075   42.8621 a2         1 CLA     -0.102200
     59 C16        83.2832   58.1824   43.4354 a2         1 CLA      0.023900
     60 C17        84.1058   58.2483   44.7774 a2         1 CLA     -0.105700
     61 C18        84.0888   59.6461   45.4399 a1         1 CLA      0.206800
     62 C19        82.6708   60.1992   45.5268 a3         1 CLA     -0.280100
     63 C20        84.7524   59.7120   46.7527 a3         1 CLA     -0.280100
     64 NC         74.6165   58.7094   40.7620 nx         1 CLA     -0.309200
     65 MG         75.8006   58.7281   39.1139 mg         1 CLA      0.895000
     66 HMD3       71.1214   55.0055   38.5813 dc         1 CLA      0.064300
     67 HMD2       70.7796   56.1885   37.2944 dc         1 CLA      0.064300
     68 HMD1       71.4016   54.7195   36.8058 dc         1 CLA      0.064300
     69 HMC3       74.0077   60.7849   44.4426 dc         1 CLA      0.052100
     70 HMC2       72.5786   59.8496   44.6968 dc         1 CLA      0.052100
     71 HMC1       74.2393   59.2181   45.1071 dc         1 CLA      0.052100
     72 HMB3       80.6390   62.3780   41.7305 dc         1 CLA      0.063600
     73 HMB2       80.9416   60.8431   40.9354 dc         1 CLA      0.063600
     74 HMB1       80.5459   62.2812   39.9448 dc         1 CLA      0.063600
     75 HMA3       81.2058   58.5570   37.5230 dc         1 CLA      0.058300
     76 HMA2       80.2319   57.0641   37.3818 dc         1 CLA      0.058300
     77 HMA1       81.1301   57.7017   35.9787 dc         1 CLA      0.058300
     78 HED3       77.2412   52.0809   35.7477 dc         1 CLA      0.079300
     79 HED2       76.6065   52.4300   34.1822 dc         1 CLA      0.079300
     80 HED1       78.0950   53.1798   34.5659 dc         1 CLA      0.079300
     81 HBC3       71.3127   55.3763   43.9366 dc         1 CLA      0.016300
     82 HBC2       71.8248   55.5682   42.2245 dc         1 CLA      0.016300
     83 HBC1       73.0263   55.7775   43.5848 dc         1 CLA      0.016300
     84 HBB2       79.4171   61.8756   44.8238 da         1 CLA      0.183000
     85 HBB1       80.0740   60.8748   43.4885 da         1 CLA      0.183000
     86 HBA2       78.9287   59.1878   32.2870 dc         1 CLA      0.029400
     87 HBA1       80.2208   59.2321   33.5968 dc         1 CLA      0.029400
     88 HAC2       71.5927   58.0286   44.1466 dc         1 CLA      0.029300
     89 HAC1       70.7943   57.6513   42.6728 dc         1 CLA      0.029300
     90 HAA2       77.3793   57.8467   33.5711 dc         1 CLA      0.028700
     91 HAA1       77.5947   59.4453   34.1611 dc         1 CLA      0.028700
     92 H203       84.8905   60.6507   47.1615 dc         1 CLA      0.065600
     93 H202       84.2304   59.0637   47.4959 dc         1 CLA      0.065600
     94 H201       85.7554   59.3050   46.5609 dc         1 CLA      0.065600
     95 H193       82.6455   61.0862   46.1219 dc         1 CLA      0.065600
     96 H192       82.2907   60.5583   44.5933 dc         1 CLA      0.065600
     97 H191       82.0908   59.5056   46.0775 dc         1 CLA      0.065600
     98 H172       83.8277   57.6286   45.5838 dc         1 CLA      0.027600
     99 H171       85.1069   58.1248   44.4842 dc         1 CLA      0.027600
    100 H162       83.6243   58.9002   42.6848 dc         1 CLA      0.002900
    101 H161       82.2438   58.4634   43.5872 dc         1 CLA      0.002900
    102 H152       82.6627   56.2119   43.5728 dc         1 CLA      0.029100
    103 H151       84.2130   56.4666   42.8474 dc         1 CLA      0.029100
    104 H143       81.3621   58.4018   41.6747 dc         1 CLA      0.063600
    105 H142       81.0866   57.4478   40.1640 dc         1 CLA      0.063600
    106 H141       80.5595   56.9467   41.6756 dc         1 CLA      0.063600
    107 H122       84.8226   56.9961   40.7481 dc         1 CLA      0.032500
    108 H121       83.7620   58.2381   40.3863 dc         1 CLA      0.032500
    109 H112       82.7645   56.8406   38.5630 dc         1 CLA      0.006600
    110 H111       83.8518   55.5167   38.9250 dc         1 CLA      0.006600
    111 H102       85.8246   56.8566   38.3203 dc         1 CLA      0.024100
    112 H101       84.8010   58.3575   38.0915 dc         1 CLA      0.024100
    113 HHD        71.8429   56.7782   40.2649 da         1 CLA      0.174300
    114 HHC        75.8372   60.8510   43.0375 da         1 CLA      0.136800
    115 HHB        79.8766   60.6227   38.2455 da         1 CLA      0.138300
    116 HBD        75.1968   56.8126   34.1302 dc         1 CLA      0.107700
    117 HAB        77.4280   62.5146   43.5528 da         1 CLA      0.155200
    118 H93        85.9545   58.8341   36.0934 dc         1 CLA      0.069500
    119 H92        86.5725   57.1818   35.5666 dc         1 CLA      0.069500
    120 H91        85.1596   57.9698   34.7897 dc         1 CLA      0.069500
    121 H8         83.7322   57.3646   36.4149 dc         1 CLA      0.029300
    122 H72        83.8873   54.9937   36.5047 dc         1 CLA      0.044400
    123 H71        85.6569   55.0934   36.1635 dc         1 CLA      0.044400
    124 H62        85.5010   55.6846   33.9143 dc         1 CLA      0.015600
    125 H61        83.7810   56.0885   34.0837 dc         1 CLA      0.015600
    126 H52        84.4859   53.1481   34.6172 dc         1 CLA      0.033200
    127 H51        84.0227   53.7037   33.1365 dc         1 CLA      0.033200
    128 H43        81.0323   52.3314   35.0254 dc         1 CLA      0.037000
    129 H42        82.2636   51.7357   33.8416 dc         1 CLA      0.037000
    130 H41        82.6432   51.7707   35.5235 dc         1 CLA      0.037000
    131 H3A        79.6186   59.6609   35.8278 dc         1 CLA      0.041100
    132 H2A        78.8142   56.8822   35.3505 dc         1 CLA      0.083100
    133 H2         81.6155   55.2399   35.5956 da         1 CLA      0.180900
    134 H18        84.6814   60.2756   44.7751 dc         1 CLA     -0.003900
    135 H13        82.7059   55.6377   41.1229 dc         1 CLA      0.019700
    136 H12        80.0978   54.6682   33.1809 dc         1 CLA      0.120400
    137 H11        81.6617   55.1515   32.5818 dc         1 CLA      0.120400
    138 C1         68.0367   60.9090   50.2927 Z1         2 LUT      0.509236
    139 C2         66.5667   60.7321   50.8821 Z2         2 LUT     -0.434695
    140 C3         65.7856   62.0399   51.0917 Z3         2 LUT      0.437453
    141 O3         66.2151   62.7142   52.2489 S1         2 LUT     -0.547129
    142 C4         65.9310   62.9379   49.9657 Z4         2 LUT     -0.468603
    143 C5         66.9906   62.6744   48.9481 Z5         2 LUT      0.279246
    144 C6         68.0024   61.7613   49.0536 Z6         2 LUT     -0.305473
    145 C7         68.5228   61.2081   47.7782 Z7         2 LUT      0.069402
    146 C8         69.0550   61.9474   46.7649 Z8         2 LUT     -0.191631
    147 C9         69.7987   61.5499   45.5394 Z9         2 LUT      0.196698
    148 C10        70.7155   62.4936   45.0746 Y1         2 LUT     -0.208611
    149 C11        71.5127   62.3318   43.9315 Y2         2 LUT      0.030784
    150 C12        72.4644   63.2686   43.6575 Y3         2 LUT     -0.220316
    151 C13        73.3587   63.2609   42.4649 Y4         2 LUT      0.215937
    152 C14        74.4187   64.1763   42.3826 Y5         2 LUT     -0.185793
    153 C15        75.5442   64.2280   41.4582 Y6         2 LUT     -0.057835
    154 C16        68.4299   59.4651   50.0939 Y7         2 LUT     -0.405615
    155 C17        68.9167   61.5267   51.4151 Y7         2 LUT     -0.405615
    156 C18        66.4536   63.5084   47.7334 Y9         2 LUT     -0.369639
    157 C19        69.3162   60.2228   44.8825 W1         2 LUT     -0.333362
    158 C20        72.9499   62.3743   41.3533 W2         2 LUT     -0.323439
    159 C21        87.1419   65.1115   34.7922 Z1         2 LUT      0.406104
    160 C22        87.6839   64.7975   33.3739 Z2         2 LUT     -0.404965
    161 C23        87.6812   66.0141   32.3999 Z3         2 LUT      0.391255
    162 O23        88.3286   65.5140   31.1557 S1         2 LUT     -0.528210
    163 C24        86.3271   66.6377   32.4717 W6         2 LUT     -0.258361
    164 C25        85.3981   66.4595   33.3762 Z5         2 LUT      0.133546
    165 C26        85.5919   65.5131   34.5753 W8         2 LUT     -0.147008
    166 C27        84.9673   66.1437   35.8235 Z7         2 LUT      0.023843
    167 C28        83.8162   65.8197   36.4232 Z8         2 LUT     -0.216987
    168 C29        83.1837   66.2657   37.6776 Z9         2 LUT      0.206524
    169 C30        81.9416   65.7102   37.9581 Y1         2 LUT     -0.215556
    170 C31        81.0836   65.9517   39.1080 Y2         2 LUT      0.025142
    171 C32        79.8903   65.3056   39.4657 Y3         2 LUT     -0.212209
    172 C33        78.9135   65.5611   40.5048 Y4         2 LUT      0.240937
    173 C34        77.8071   64.8185   40.5649 Y5         2 LUT     -0.218862
    174 C35        76.7306   65.0023   41.4781 Y6         2 LUT     -0.023547
    175 C36        88.0813   66.0411   35.5077 Y7         2 LUT     -0.393485
    176 C37        87.2981   63.7751   35.5337 Y7         2 LUT     -0.393485
    177 C38        83.9603   67.0643   33.2310 Y9         2 LUT     -0.387526
    178 C39        83.8785   67.2141   38.6585 W1         2 LUT     -0.322618
    179 C40        79.2173   66.7682   41.3541 W2         2 LUT     -0.358472
    180 H403       79.3771   67.6445   40.7917 R7         2 LUT      0.097720
    181 H402       78.5066   66.9984   42.0732 R7         2 LUT      0.097720
    182 H401       80.1364   66.4556   41.9087 R7         2 LUT      0.097720
    183 H393       84.9053   67.3968   38.4207 R4         2 LUT      0.082505
    184 H392       83.5309   68.2112   38.5596 R4         2 LUT      0.082505
    185 H391       83.6574   66.9512   39.6887 R4         2 LUT      0.082505
    186 H383       83.6669   67.3553   32.2416 R1         2 LUT      0.104030
    187 H382       83.1375   66.4111   33.4782 R1         2 LUT      0.104030
    188 H381       83.8739   67.9834   33.7425 R1         2 LUT      0.104030
    189 H373       88.3494   63.6342   35.7105 T4         2 LUT      0.089537
    190 H372       86.9112   63.6390   36.5524 T4         2 LUT      0.089537
    191 H371       86.9455   62.9050   35.0245 T4         2 LUT      0.089537
    192 H363       89.0667   65.5475   35.8155 T4         2 LUT      0.089537
    193 H362       88.4947   66.8295   34.8623 T4         2 LUT      0.089537
    194 H361       87.6684   66.5939   36.3922 T4         2 LUT      0.089537
    195 H222       88.6685   64.4740   33.5572 U2         2 LUT      0.127376
    196 H221       87.2218   63.9124   32.9311 U2         2 LUT      0.127376
    197 H203       71.9394   62.5798   40.9673 R7         2 LUT      0.087068
    198 H202       73.5912   62.3524   40.5241 R7         2 LUT      0.087068
    199 H201       72.7538   61.3040   41.5767 R7         2 LUT      0.087068
    200 H193       69.7726   59.2704   45.2869 R4         2 LUT      0.089716
    201 H192       68.2501   60.0700   44.8587 R4         2 LUT      0.089716
    202 H191       69.5402   60.2301   43.8417 R4         2 LUT      0.089716
    203 H183       66.5622   64.5587   47.8683 R1         2 LUT      0.094572
    204 H182       66.9452   63.1115   46.8424 R1         2 LUT      0.094572
    205 H181       65.4192   63.3779   47.5033 R1         2 LUT      0.094572
    206 H173       68.8303   61.0252   52.3597 T4         2 LUT      0.093752
    207 H172       69.9928   61.3598   51.3419 T4         2 LUT      0.093752
    208 H171       68.6296   62.5713   51.5662 T4         2 LUT      0.093752
    209 H163       69.4901   59.3643   49.8536 T4         2 LUT      0.093752
    210 H162       68.4362   58.8106   50.9860 T4         2 LUT      0.093752
    211 H161       67.8384   58.8712   49.4177 T4         2 LUT      0.093752
    212 HO3        65.8409   62.3771   53.0459 Q1         2 LUT      0.300121
    213 H8         69.1381   62.9801   46.8420 U7         2 LUT      0.080784
    214 H7         68.8047   60.1903   47.7129 U6         2 LUT      0.042190
    215 H42        64.9886   63.2139   49.4549 U5         2 LUT      0.145166
    216 H41        65.9482   63.9949   50.3219 U5         2 LUT      0.145166
    217 H35        76.8026   65.8230   42.2559 T3         2 LUT      0.077919
    218 H34        77.7763   63.8806   39.9399 T2         2 LUT      0.073626
    219 H32        79.6510   64.4516   38.7804 T1         2 LUT      0.092510
    220 H31        81.4570   66.7050   39.7943 U9         2 LUT      0.070048
    221 H30        81.4546   65.1407   37.2099 U8         2 LUT      0.085442
    222 H3         64.6950   61.7580   51.1856 U3         2 LUT     -0.031596
    223 H28        83.2289   65.1513   35.7808 U7         2 LUT      0.084728
    224 H27        85.5728   66.7615   36.4605 U6         2 LUT      0.087291
    225 H26        84.9639   64.6574   34.2832 Q6         2 LUT      0.075325
    226 H24        86.1376   67.3516   31.6915 Q5         2 LUT      0.094482
    227 H23        88.3321   66.7933   32.7832 U3         2 LUT     -0.024869
    228 H22        65.9574   60.2356   50.1315 U2         2 LUT      0.127376
    229 H21        66.4380   60.1599   51.8457 U2         2 LUT      0.127376
    230 H15        75.4397   63.4041   40.6909 T3         2 LUT      0.093200
    231 H14        74.6136   64.7646   43.2516 T2         2 LUT      0.068865
    232 H12        72.5163   64.0510   44.3790 T1         2 LUT      0.095507
    233 H11        71.3355   61.5098   43.3213 U9         2 LUT      0.068930
    234 H10        70.9208   63.3138   45.7437 U8         2 LUT      0.083911
    235 H1         87.8414   65.7879   30.3427 Q1         2 LUT      0.297311
@<TRIPOS>BOND
    1     6     1 1
    2     7     2 1
    3     8     3 1
    4     9     4 1
    5    11     4 1
    6    12     6 1
    7    13     9 1
    8    16     9 1
    9    25     5 1
   10    25    16 1
   11    26    10 1
   12    26    17 1
   13    27    18 1
   14    28    14 1
   15    28    19 1
   16    29    12 1
   17    30    13 1
   18    31    24 1
   19    32     1 1
   20    32    25 1
   21    33    21 1
   22    33    26 1
   23    34    22 1
   24    34    27 1
   25    35    23 1
   26    35    28 1
   27    36    12 1
   28    36    24 1
   29    37    13 1
   30    37    15 1
   31    38    31 1
   32    39    20 1
   33    39    32 1
   34    40     2 1
   35    40    33 1
   36    41     3 1
   37    41    34 1
   38    42     4 1
   39    42    35 1
   40    43    38 1
   41    44     5 1
   42    44    17 1
   43    44    39 1
   44    45    10 1
   45    45    18 1
   46    45    40 1
   47    46    19 1
   48    46    41 1
   49    47    14 1
   50    47    16 1
   51    47    42 1
   52    48    38 1
   53    49    48 1
   54    50    49 1
   55    51    50 1
   56    52    51 1
   57    53    51 1
   58    54    53 1
   59    55    54 1
   60    56    55 1
   61    57    56 1
   62    58    56 1
   63    59    58 1
   64    60    59 1
   65    61    60 1
   66    62    61 1
   67    63    61 1
   68    64    27 1
   69    64    46 1
   70    65     5 1
   71    65    10 1
   72    65    64 1
   73    65    14 1
   74    66    23 1
   75    67    23 1
   76    68    23 1
   77    69    22 1
   78    70    22 1
   79    71    22 1
   80    72    21 1
   81    73    21 1
   82    74    21 1
   83    75    20 1
   84    76    20 1
   85    77    20 1
   86    78    15 1
   87    79    15 1
   88    80    15 1
   89    81     8 1
   90    82     8 1
   91    83     8 1
   92    84     7 1
   93    85     7 1
   94    86     6 1
   95    87     6 1
   96    88     3 1
   97    89     3 1
   98    90     1 1
   99    91     1 1
  100    92    63 1
  101    93    63 1
  102    94    63 1
  103    95    62 1
  104    96    62 1
  105    97    62 1
  106    98    60 1
  107    99    60 1
  108   100    59 1
  109   101    59 1
  110   102    58 1
  111   103    58 1
  112   104    57 1
  113   105    57 1
  114   106    57 1
  115   107    55 1
  116   108    55 1
  117   109    54 1
  118   110    54 1
  119   111    53 1
  120   112    53 1
  121   113    19 1
  122   114    18 1
  123   115    17 1
  124   116     9 1
  125   117     2 1
  126   118    52 1
  127   119    52 1
  128   120    52 1
  129   121    51 1
  130   122    50 1
  131   123    50 1
  132   124    49 1
  133   125    49 1
  134   126    48 1
  135   127    48 1
  136   128    43 1
  137   129    43 1
  138   130    43 1
  139   131    39 1
  140   132    32 1
  141   133    31 1
  142   134    61 1
  143   135    56 1
  144   136    24 1
  145   137    24 1
  146   139   138 1
  147   140   139 1
  148   141   140 1
  149   142   140 1
  150   143   142 1
  151   144   138 1
  152   144   143 1
  153   145   144 1
  154   146   145 1
  155   147   146 1
  156   148   147 1
  157   149   148 1
  158   150   149 1
  159   151   150 1
  160   152   151 1
  161   153   152 1
  162   154   138 1
  163   155   138 1
  164   156   143 1
  165   157   147 1
  166   158   151 1
  167   160   159 1
  168   161   160 1
  169   162   161 1
  170   163   161 1
  171   164   163 1
  172   165   159 1
  173   165   164 1
  174   166   165 1
  175   167   166 1
  176   168   167 1
  177   169   168 1
  178   170   169 1
  179   171   170 1
  180   172   171 1
  181   173   172 1
  182   174   153 1
  183   174   173 1
  184   175   159 1
  185   176   159 1
  186   177   164 1
  187   178   168 1
  188   179   172 1
  189   180   179 1
  190   181   179 1
  191   182   179 1
  192   183   178 1
  193   184   178 1
  194   185   178 1
  195   186   177 1
  196   187   177 1
  197   188   177 1
  198   189   176 1
  199   190   176 1
  200   191   176 1
  201   192   175 1
  202   193   175 1
  203   194   175 1
  204   195   160 1
  205   196   160 1
  206   197   158 1
  207   198   158 1
  208   199   158 1
  209   200   157 1
  210   201   157 1
  211   202   157 1
  212   203   156 1
  213   204   156 1
  214   205   156 1
  215   206   155 1
  216   207   155 1
  217   208   155 1
  218   209   154 1
  219   210   154 1
  220   211   154 1
  221   212   141 1
  222   213   146 1
  223   214   145 1
  224   215   142 1
  225   216   142 1
  226   217   174 1
  227   218   173 1
  228   219   171 1
  229   220   170 1
  230   221   169 1
  231   222   140 1
  232   223   167 1
  233   224   166 1
  234   225   165 1
  235   226   163 1
  236   227   161 1
  237   228   139 1
  238   229   139 1
  239   230   153 1
  240   231   152 1
  241   232   150 1
  242   233   149 1
  243   234   148 1
  244   235   162 1
  245   65    153 1
  246   65    174 1
@<TRIPOS>SUBSTRUCTURE
      1 CLA               1 ****               0 ****  **** 
      2 LUT             138 ****               0 ****  **** 
