@<TRIPOS>MOLECULE
Cpptraj generated mol2 file.
  235   246     2     0     0
SMALL
USER_CHARGES


@<TRIPOS>ATOM
      1 CAA        77.4909   57.4646   32.5909 a2         1 CLA     -0.055900
      2 CAB        77.7971   61.3826   41.6723 c8         1 CLA     -0.148500
      3 CAC        71.0363   57.1539   41.6564 a2         1 CLA     -0.012600
      4 CAD        73.1906   55.0694   34.1668 ck         1 CLA      0.398800
      5 NA         76.5108   58.1201   36.0827 ns         1 CLA     -0.225500
      6 CBA        78.7542   57.0386   31.7091 a2         1 CLA     -0.135000
      7 CBB        79.0027   61.4180   42.3281 c0         1 CLA     -0.395200
      8 CBC        71.1112   55.6164   41.6731 a3         1 CLA     -0.037700
      9 CBD        74.7365   55.4821   33.7667 a1         1 CLA     -0.053900
     10 NB         76.4959   59.6529   38.7042 nm         1 CLA     -0.295700
     11 OBD        72.4728   54.3031   33.5458 o2         1 CLA     -0.494600
     12 CGA        79.0051   55.5214   31.5629 c4         1 CLA      0.827000
     13 CGD        75.6793   54.2771   33.7233 c4         1 CLA      0.655300
     14 ND         73.8351   57.0509   36.9092 nm         1 CLA     -0.291600
     15 CED        76.7664   52.6492   35.2020 a3         1 CLA      0.005400
     16 CHA        75.1167   56.5247   34.8798 cs         1 CLA     -0.123800
     17 CHB        78.2924   59.4034   37.0502 aa         1 CLA     -0.291900
     18 CHC        75.3617   59.7828   40.9763 aa         1 CLA     -0.090400
     19 CHD        72.1435   56.9212   38.6789 aa         1 CLA     -0.052000
     20 CMA        79.8324   57.1534   35.4806 a3         1 CLA     -0.230700
     21 CMB        79.8559   61.3032   39.0548 a3         1 CLA     -0.180800
     22 CMC        73.2190   59.1344   43.2526 a3         1 CLA     -0.134000
     23 CMD        70.7856   55.0916   36.5349 a3         1 CLA     -0.141100
     24 C1         80.3202   53.7823   32.6374 a2         1 CLA      0.023000
     25 C1A        76.2885   57.3228   34.9934 ac         1 CLA     -0.015100
     26 C1B        77.7272   59.9773   38.2265 cr         1 CLA      0.054700
     27 C1C        74.1780   58.9475   40.8218 cn         1 CLA     -0.005600
     28 C1D        72.6515   56.5504   37.4016 ap         1 CLA     -0.047300
     29 O1A        78.5801   54.7520   30.7687 o2         1 CLA     -0.610800
     30 O1D        76.2433   53.8477   32.7676 o2         1 CLA     -0.558200
     31 C2         81.1709   53.6814   33.8552 c8         1 CLA     -0.325100
     32 C2A        77.5328   57.1041   34.1393 a1         1 CLA      0.098600
     33 C2B        78.4016   60.7483   39.2192 cb         1 CLA      0.088500
     34 C2C        73.1768   58.6112   41.8401 cb         1 CLA      0.053700
     35 C2D        72.0913   55.6764   36.4324 cb         1 CLA      0.058900
     36 O2A        79.8015   55.1448   32.6354 o1         1 CLA     -0.437200
     37 O2D        75.8723   53.7786   34.9855 o1         1 CLA     -0.357600
     38 C3         81.8446   52.5760   34.3458 c5         1 CLA      0.031200
     39 C3A        78.6142   57.9203   34.9647 a1         1 CLA      0.166800
     40 C3B        77.5159   60.8338   40.3652 cb         1 CLA      0.035000
     41 C3C        72.2658   57.8089   41.1220 cb         1 CLA     -0.089900
     42 C3D        72.9827   55.6731   35.4026 cb         1 CLA     -0.035900
     43 C4         81.3694   51.5483   35.3656 a3         1 CLA     -0.053300
     44 C4A        77.7424   58.5882   36.0319 ac         1 CLA      0.001800
     45 C4B        76.4259   60.0425   40.0749 cn         1 CLA     -0.020900
     46 C4C        72.7516   57.6393   39.7553 cr         1 CLA     -0.044400
     47 C4D        74.1079   56.4424   35.7742 c6         1 CLA     -0.046000
     48 C5         83.2868   52.3156   33.7772 a2         1 CLA     -0.070400
     49 C6         84.5305   53.1913   34.1899 a2         1 CLA      0.043900
     50 C7         84.7280   53.1842   35.6774 a2         1 CLA     -0.150000
     51 C8         85.4524   54.2981   36.4119 a1         1 CLA      0.064200
     52 C9         86.9719   54.2114   36.2654 a3         1 CLA     -0.259300
     53 C10        85.0919   54.4589   37.8997 a2         1 CLA     -0.071900
     54 C11        83.7022   54.8643   38.2723 a2         1 CLA      0.014500
     55 C12        83.6259   55.2248   39.7738 a2         1 CLA     -0.112100
     56 C13        82.2449   55.3133   40.4630 a1         1 CLA      0.089200
     57 C14        81.3783   56.3831   39.7565 a3         1 CLA     -0.239100
     58 C15        82.3681   55.4480   41.9938 a2         1 CLA     -0.102200
     59 C16        83.1004   56.6288   42.5579 a2         1 CLA      0.023900
     60 C17        83.2580   56.5413   44.1370 a2         1 CLA     -0.105700
     61 C18        84.0758   57.7193   44.7999 a1         1 CLA      0.206800
     62 C19        83.6423   59.1602   44.2938 a3         1 CLA     -0.280100
     63 C20        84.0703   57.6893   46.3700 a3         1 CLA     -0.280100
     64 NC         73.8965   58.2600   39.6692 nx         1 CLA     -0.309200
     65 MG         75.0525   58.4528   37.7759 mg         1 CLA      0.895000
     66 HMD3       70.4396   55.1323   37.5112 dc         1 CLA      0.064300
     67 HMD2       70.1119   55.7146   35.9249 dc         1 CLA      0.064300
     68 HMD1       70.7842   54.0661   36.1404 dc         1 CLA      0.064300
     69 HMC3       73.9502   58.5749   43.8378 dc         1 CLA      0.052100
     70 HMC2       73.2813   60.2237   43.3697 dc         1 CLA      0.052100
     71 HMC1       72.2481   58.9550   43.6631 dc         1 CLA      0.052100
     72 HMB3       80.6501   60.5945   39.3599 dc         1 CLA      0.063600
     73 HMB2       79.9026   61.4722   37.9621 dc         1 CLA      0.063600
     74 HMB1       80.0502   62.3388   39.4460 dc         1 CLA      0.063600
     75 HMA3       80.4556   57.6803   36.2329 dc         1 CLA      0.058300
     76 HMA2       79.6201   56.2848   36.0826 dc         1 CLA      0.058300
     77 HMA1       80.5100   56.9973   34.6174 dc         1 CLA      0.058300
     78 HED3       76.7702   52.4952   36.2613 dc         1 CLA      0.079300
     79 HED2       76.2204   51.8370   34.6912 dc         1 CLA      0.079300
     80 HED1       77.7588   52.9045   34.7631 dc         1 CLA      0.079300
     81 HBC3       71.1421   55.1170   40.7424 dc         1 CLA      0.016300
     82 HBC2       72.0545   55.3571   42.1237 dc         1 CLA      0.016300
     83 HBC1       70.1653   55.2955   42.2566 dc         1 CLA      0.016300
     84 HBB2       79.2610   62.0264   43.2313 da         1 CLA      0.183000
     85 HBB1       79.8971   61.0247   41.7786 da         1 CLA      0.183000
     86 HBA2       78.5886   57.4373   30.6866 dc         1 CLA      0.029400
     87 HBA1       79.7321   57.5406   31.9557 dc         1 CLA      0.029400
     88 HAC2       70.8396   57.5634   42.6142 dc         1 CLA      0.029300
     89 HAC1       70.2065   57.4865   41.0348 dc         1 CLA      0.029300
     90 HAA2       76.6343   56.9460   32.2206 dc         1 CLA      0.028700
     91 HAA1       77.3208   58.5472   32.3869 dc         1 CLA      0.028700
     92 H203       84.5489   58.5580   46.8106 dc         1 CLA      0.065600
     93 H202       83.0401   57.5153   46.7215 dc         1 CLA      0.065600
     94 H201       84.5808   56.8470   46.6794 dc         1 CLA      0.065600
     95 H193       82.6138   59.1407   43.9316 dc         1 CLA      0.065600
     96 H192       83.7754   59.9326   45.0592 dc         1 CLA      0.065600
     97 H191       84.3286   59.4885   43.5270 dc         1 CLA      0.065600
     98 H172       82.2922   56.6821   44.5502 dc         1 CLA      0.027600
     99 H171       83.7078   55.6821   44.5284 dc         1 CLA      0.027600
    100 H162       84.0905   56.6478   42.0514 dc         1 CLA      0.002900
    101 H161       82.7022   57.5707   42.2161 dc         1 CLA      0.002900
    102 H152       81.3707   55.3890   42.4362 dc         1 CLA      0.029100
    103 H151       82.9456   54.5709   42.3562 dc         1 CLA      0.029100
    104 H143       81.8187   57.3463   39.8850 dc         1 CLA      0.063600
    105 H142       81.0297   56.2244   38.7972 dc         1 CLA      0.063600
    106 H141       80.4495   56.4768   40.4075 dc         1 CLA      0.063600
    107 H122       84.2812   54.5993   40.3170 dc         1 CLA      0.032500
    108 H121       84.0008   56.2204   39.8165 dc         1 CLA      0.032500
    109 H112       83.4381   55.6973   37.7160 dc         1 CLA      0.006600
    110 H111       82.9723   54.1502   38.0222 dc         1 CLA      0.006600
    111 H102       85.3233   53.5567   38.5057 dc         1 CLA      0.024100
    112 H101       85.8236   55.1929   38.3038 dc         1 CLA      0.024100
    113 HHD        71.0906   56.5928   38.9224 da         1 CLA      0.174300
    114 HHC        75.4739   60.2249   41.9479 da         1 CLA      0.136800
    115 HHB        79.3168   59.6048   36.8609 da         1 CLA      0.138300
    116 HBD        74.7043   56.0549   32.8143 dc         1 CLA      0.107700
    117 HAB        76.9099   61.8536   42.1029 da         1 CLA      0.155200
    118 H93        87.3448   54.0836   35.2767 dc         1 CLA      0.069500
    119 H92        87.3937   55.1553   36.5475 dc         1 CLA      0.069500
    120 H91        87.3839   53.6066   37.0158 dc         1 CLA      0.069500
    121 H8         85.2089   55.2314   35.9027 dc         1 CLA      0.029300
    122 H72        83.7186   53.3244   35.9982 dc         1 CLA      0.044400
    123 H71        85.0878   52.2392   35.9946 dc         1 CLA      0.044400
    124 H62        85.4730   52.8947   33.7522 dc         1 CLA      0.015600
    125 H61        84.3114   54.2186   33.9008 dc         1 CLA      0.015600
    126 H52        83.6730   51.3731   34.2222 dc         1 CLA      0.033200
    127 H51        83.3727   52.1842   32.6719 dc         1 CLA      0.033200
    128 H43        80.3215   51.7019   35.5600 dc         1 CLA      0.037000
    129 H42        81.3199   50.5555   34.9582 dc         1 CLA      0.037000
    130 H41        82.0344   51.6105   36.2248 dc         1 CLA      0.037000
    131 H3A        78.9481   58.7317   34.2247 dc         1 CLA      0.041100
    132 H2A        77.7903   56.0324   34.2030 dc         1 CLA      0.083100
    133 H2         81.2783   54.6636   34.4191 da         1 CLA      0.180900
    134 H18        85.0854   57.7357   44.3815 dc         1 CLA     -0.003900
    135 H13        81.8324   54.3288   40.3403 dc         1 CLA      0.019700
    136 H12        79.4352   53.1316   32.7982 dc         1 CLA      0.120400
    137 H11        80.7652   53.5149   31.6775 dc         1 CLA      0.120400
    138 C1         67.7182   60.6095   49.0951 Z1         2 LUT      0.509236
    139 C2         66.4682   60.5761   49.8808 Z2         2 LUT     -0.434695
    140 C3         65.5218   61.7956   49.9944 Z3         2 LUT      0.437453
    141 O3         65.7936   62.3721   51.2844 S1         2 LUT     -0.547129
    142 C4         65.7028   62.8318   48.9453 Z4         2 LUT     -0.468603
    143 C5         66.5356   62.4933   47.7498 Z5         2 LUT      0.279246
    144 C6         67.4871   61.4807   47.7659 Z6         2 LUT     -0.305473
    145 C7         68.0026   60.9013   46.5098 Z7         2 LUT      0.069402
    146 C8         68.7816   61.5674   45.5067 Z8         2 LUT     -0.191631
    147 C9         69.4122   61.0313   44.2448 Z9         2 LUT      0.196698
    148 C10        70.2906   61.8093   43.4881 Y1         2 LUT     -0.208611
    149 C11        71.0014   61.6516   42.2573 Y2         2 LUT      0.030784
    150 C12        72.0675   62.4056   41.9788 Y3         2 LUT     -0.220316
    151 C13        72.9251   62.3658   40.7768 Y4         2 LUT      0.215937
    152 C14        74.0163   63.1811   40.8406 Y5         2 LUT     -0.185793
    153 C15        75.0838   63.2702   40.0025 Y6         2 LUT     -0.057835
    154 C16        68.2525   59.1687   48.9503 Y7         2 LUT     -0.405615
    155 C17        68.6918   61.3725   50.0484 Y7         2 LUT     -0.405615
    156 C18        66.0015   63.2439   46.5353 Y9         2 LUT     -0.369639
    157 C19        69.0162   59.6506   43.8240 W1         2 LUT     -0.333362
    158 C20        72.4614   61.6754   39.5176 W2         2 LUT     -0.323439
    159 C21        86.3206   64.6245   34.1132 Z1         2 LUT      0.406104
    160 C22        87.2388   64.1371   32.8988 Z2         2 LUT     -0.404965
    161 C23        87.4764   65.1659   31.7576 Z3         2 LUT      0.391255
    162 O23        88.3300   64.5665   30.7098 S1         2 LUT     -0.528210
    163 C24        86.2485   65.8480   31.3119 W6         2 LUT     -0.258361
    164 C25        85.0857   65.8674   32.0193 Z5         2 LUT      0.133546
    165 C26        84.9127   65.1170   33.3737 W8         2 LUT     -0.147008
    166 C27        84.1030   65.9298   34.3923 Z7         2 LUT      0.023843
    167 C28        83.2080   65.2805   35.1968 Z8         2 LUT     -0.216987
    168 C29        82.6143   65.7678   36.4557 Z9         2 LUT      0.206524
    169 C30        81.4669   65.2095   36.9393 Y1         2 LUT     -0.215556
    170 C31        80.6113   65.3540   38.1117 Y2         2 LUT      0.025142
    171 C32        79.3809   64.7335   38.2642 Y3         2 LUT     -0.212209
    172 C33        78.5161   64.7518   39.4360 Y4         2 LUT      0.240937
    173 C34        77.3293   64.0406   39.3380 Y5         2 LUT     -0.218862
    174 C35        76.2244   64.0344   40.1787 Y6         2 LUT     -0.023547
    175 C36        87.1314   65.6828   34.9371 Y7         2 LUT     -0.393485
    176 C37        86.1416   63.3850   35.0107 Y7         2 LUT     -0.393485
    177 C38        84.0463   66.7362   31.5420 Y9         2 LUT     -0.387526
    178 C39        83.2658   66.9523   37.1386 W1         2 LUT     -0.322618
    179 C40        78.9204   65.5590   40.6237 W2         2 LUT     -0.358472
    180 H403       78.8673   66.6240   40.5232 R7         2 LUT      0.097720
    181 H402       78.3557   65.3115   41.5467 R7         2 LUT      0.097720
    182 H401       79.9712   65.2131   40.9167 R7         2 LUT      0.097720
    183 H393       82.4449   67.6463   37.4025 R4         2 LUT      0.082505
    184 H392       83.7411   66.7737   38.0615 R4         2 LUT      0.082505
    185 H391       83.7563   67.5974   36.4390 R4         2 LUT      0.082505
    186 H383       84.2994   67.3582   30.6616 R1         2 LUT      0.104030
    187 H382       83.1906   66.1657   31.1446 R1         2 LUT      0.104030
    188 H381       83.8084   67.4797   32.3002 R1         2 LUT      0.104030
    189 H373       85.5259   62.5291   34.5541 T4         2 LUT      0.089537
    190 H372       87.1056   62.9788   35.3034 T4         2 LUT      0.089537
    191 H371       85.7520   63.6845   35.9640 T4         2 LUT      0.089537
    192 H363       88.0370   65.3003   35.3976 T4         2 LUT      0.089537
    193 H362       87.5768   66.5436   34.4340 T4         2 LUT      0.089537
    194 H361       86.4256   65.9988   35.6819 T4         2 LUT      0.089537
    195 H222       88.2488   63.9765   33.1416 U2         2 LUT      0.127376
    196 H221       86.8142   63.2407   32.5739 U2         2 LUT      0.127376
    197 H203       71.5477   61.0926   39.5703 R7         2 LUT      0.087068
    198 H202       72.2182   62.3867   38.7608 R7         2 LUT      0.087068
    199 H201       73.2624   61.0217   39.1734 R7         2 LUT      0.087068
    200 H193       67.9497   59.4303   43.7033 R4         2 LUT      0.089716
    201 H192       69.5170   59.4604   42.8950 R4         2 LUT      0.089716
    202 H191       69.4103   58.8270   44.4372 R4         2 LUT      0.089716
    203 H183       64.9617   63.4023   46.6315 R1         2 LUT      0.094572
    204 H182       66.5423   64.2016   46.4874 R1         2 LUT      0.094572
    205 H181       66.1817   62.7605   45.6025 R1         2 LUT      0.094572
    206 H173       69.0234   60.7929   50.8443 T4         2 LUT      0.093752
    207 H172       69.5200   61.8376   49.4965 T4         2 LUT      0.093752
    208 H171       68.1713   62.2359   50.5171 T4         2 LUT      0.093752
    209 H163       69.0956   59.0962   48.2689 T4         2 LUT      0.093752
    210 H162       68.5998   58.7286   49.8997 T4         2 LUT      0.093752
    211 H161       67.4486   58.5229   48.5430 T4         2 LUT      0.093752
    212 HO3        65.4624   61.8842   52.0085 Q1         2 LUT      0.300121
    213 H8         69.0336   62.6199   45.5802 U7         2 LUT      0.080784
    214 H7         67.9342   59.8942   46.3589 U6         2 LUT      0.042190
    215 H42        64.6104   63.0457   48.7006 U5         2 LUT      0.145166
    216 H41        66.2495   63.6614   49.4506 U5         2 LUT      0.145166
    217 H35        76.2639   64.6790   41.1049 T3         2 LUT      0.077919
    218 H34        77.1997   63.5953   38.3264 T2         2 LUT      0.073626
    219 H32        79.1741   64.0461   37.4974 T1         2 LUT      0.092510
    220 H31        80.9387   66.0715   38.8618 U9         2 LUT      0.070048
    221 H30        81.0662   64.4036   36.2125 U8         2 LUT      0.085442
    222 H3         64.4512   61.4442   49.9112 U3         2 LUT     -0.031596
    223 H28        83.0618   64.2321   35.1446 U7         2 LUT      0.084728
    224 H27        84.3615   66.9557   34.6187 U6         2 LUT      0.087291
    225 H26        84.3272   64.2173   33.0563 Q6         2 LUT      0.075325
    226 H24        86.1239   66.2738   30.3428 Q5         2 LUT      0.094482
    227 H23        87.9725   65.9978   32.2504 U3         2 LUT     -0.024869
    228 H22        65.8661   59.9280   49.2602 U2         2 LUT      0.127376
    229 H21        66.6742   60.0602   50.8026 U2         2 LUT      0.127376
    230 H15        75.1033   62.5711   39.1162 T3         2 LUT      0.093200
    231 H14        74.1439   63.7462   41.7343 T2         2 LUT      0.068865
    232 H12        72.3899   63.1102   42.7290 T1         2 LUT      0.095507
    233 H11        70.5210   60.9055   41.6354 U9         2 LUT      0.068930
    234 H10        70.5372   62.7436   44.0397 U8         2 LUT      0.083911
    235 H1         87.7907   64.0552   30.0379 Q1         2 LUT      0.297311
@<TRIPOS>BOND
    1     6     1 1
    2     7     2 1
    3     8     3 1
    4     9     4 1
    5    11     4 1
    6    12     6 1
    7    13     9 1
    8    16     9 1
    9    25     5 1
   10    25    16 1
   11    26    10 1
   12    26    17 1
   13    27    18 1
   14    28    14 1
   15    28    19 1
   16    29    12 1
   17    30    13 1
   18    31    24 1
   19    32     1 1
   20    32    25 1
   21    33    21 1
   22    33    26 1
   23    34    22 1
   24    34    27 1
   25    35    23 1
   26    35    28 1
   27    36    12 1
   28    36    24 1
   29    37    13 1
   30    37    15 1
   31    38    31 1
   32    39    20 1
   33    39    32 1
   34    40     2 1
   35    40    33 1
   36    41     3 1
   37    41    34 1
   38    42     4 1
   39    42    35 1
   40    43    38 1
   41    44     5 1
   42    44    17 1
   43    44    39 1
   44    45    10 1
   45    45    18 1
   46    45    40 1
   47    46    19 1
   48    46    41 1
   49    47    14 1
   50    47    16 1
   51    47    42 1
   52    48    38 1
   53    49    48 1
   54    50    49 1
   55    51    50 1
   56    52    51 1
   57    53    51 1
   58    54    53 1
   59    55    54 1
   60    56    55 1
   61    57    56 1
   62    58    56 1
   63    59    58 1
   64    60    59 1
   65    61    60 1
   66    62    61 1
   67    63    61 1
   68    64    27 1
   69    64    46 1
   70    65     5 1
   71    65    10 1
   72    65    64 1
   73    65    14 1
   74    66    23 1
   75    67    23 1
   76    68    23 1
   77    69    22 1
   78    70    22 1
   79    71    22 1
   80    72    21 1
   81    73    21 1
   82    74    21 1
   83    75    20 1
   84    76    20 1
   85    77    20 1
   86    78    15 1
   87    79    15 1
   88    80    15 1
   89    81     8 1
   90    82     8 1
   91    83     8 1
   92    84     7 1
   93    85     7 1
   94    86     6 1
   95    87     6 1
   96    88     3 1
   97    89     3 1
   98    90     1 1
   99    91     1 1
  100    92    63 1
  101    93    63 1
  102    94    63 1
  103    95    62 1
  104    96    62 1
  105    97    62 1
  106    98    60 1
  107    99    60 1
  108   100    59 1
  109   101    59 1
  110   102    58 1
  111   103    58 1
  112   104    57 1
  113   105    57 1
  114   106    57 1
  115   107    55 1
  116   108    55 1
  117   109    54 1
  118   110    54 1
  119   111    53 1
  120   112    53 1
  121   113    19 1
  122   114    18 1
  123   115    17 1
  124   116     9 1
  125   117     2 1
  126   118    52 1
  127   119    52 1
  128   120    52 1
  129   121    51 1
  130   122    50 1
  131   123    50 1
  132   124    49 1
  133   125    49 1
  134   126    48 1
  135   127    48 1
  136   128    43 1
  137   129    43 1
  138   130    43 1
  139   131    39 1
  140   132    32 1
  141   133    31 1
  142   134    61 1
  143   135    56 1
  144   136    24 1
  145   137    24 1
  146   139   138 1
  147   140   139 1
  148   141   140 1
  149   142   140 1
  150   143   142 1
  151   144   138 1
  152   144   143 1
  153   145   144 1
  154   146   145 1
  155   147   146 1
  156   148   147 1
  157   149   148 1
  158   150   149 1
  159   151   150 1
  160   152   151 1
  161   153   152 1
  162   154   138 1
  163   155   138 1
  164   156   143 1
  165   157   147 1
  166   158   151 1
  167   160   159 1
  168   161   160 1
  169   162   161 1
  170   163   161 1
  171   164   163 1
  172   165   159 1
  173   165   164 1
  174   166   165 1
  175   167   166 1
  176   168   167 1
  177   169   168 1
  178   170   169 1
  179   171   170 1
  180   172   171 1
  181   173   172 1
  182   174   153 1
  183   174   173 1
  184   175   159 1
  185   176   159 1
  186   177   164 1
  187   178   168 1
  188   179   172 1
  189   180   179 1
  190   181   179 1
  191   182   179 1
  192   183   178 1
  193   184   178 1
  194   185   178 1
  195   186   177 1
  196   187   177 1
  197   188   177 1
  198   189   176 1
  199   190   176 1
  200   191   176 1
  201   192   175 1
  202   193   175 1
  203   194   175 1
  204   195   160 1
  205   196   160 1
  206   197   158 1
  207   198   158 1
  208   199   158 1
  209   200   157 1
  210   201   157 1
  211   202   157 1
  212   203   156 1
  213   204   156 1
  214   205   156 1
  215   206   155 1
  216   207   155 1
  217   208   155 1
  218   209   154 1
  219   210   154 1
  220   211   154 1
  221   212   141 1
  222   213   146 1
  223   214   145 1
  224   215   142 1
  225   216   142 1
  226   217   174 1
  227   218   173 1
  228   219   171 1
  229   220   170 1
  230   221   169 1
  231   222   140 1
  232   223   167 1
  233   224   166 1
  234   225   165 1
  235   226   163 1
  236   227   161 1
  237   228   139 1
  238   229   139 1
  239   230   153 1
  240   231   152 1
  241   232   150 1
  242   233   149 1
  243   234   148 1
  244   235   162 1
  245   65    153 1
  246   65    174 1
@<TRIPOS>SUBSTRUCTURE
      1 CLA               1 ****               0 ****  **** 
      2 LUT             138 ****               0 ****  **** 
