@<TRIPOS>MOLECULE
Cpptraj generated mol2 file.
  235   246     2     0     0
SMALL
USER_CHARGES


@<TRIPOS>ATOM
      1 CAA        79.6222   57.4067   34.3173 a2         1 CLA     -0.055900
      2 CAB        79.9025   61.5006   42.9588 c8         1 CLA     -0.148500
      3 CAC        72.9024   57.2565   42.9584 a2         1 CLA     -0.012600
      4 CAD        75.3339   54.7886   35.7822 ck         1 CLA      0.398800
      5 NA         78.7060   57.9105   37.6824 ns         1 CLA     -0.225500
      6 CBA        80.7355   56.9532   33.3916 a2         1 CLA     -0.135000
      7 CBB        80.7148   62.5116   43.2681 c0         1 CLA     -0.395200
      8 CBC        72.9606   55.6867   43.1804 a3         1 CLA     -0.037700
      9 CBD        76.7844   55.2966   35.3671 a1         1 CLA     -0.053900
     10 NB         78.6370   59.5507   40.1034 nm         1 CLA     -0.295700
     11 OBD        74.7329   53.9834   35.0845 o2         1 CLA     -0.494600
     12 CGA        80.9610   55.4978   32.9710 c4         1 CLA      0.827000
     13 CGD        77.6662   54.1168   35.0905 c4         1 CLA      0.655300
     14 ND         75.9135   56.9393   38.5246 nm         1 CLA     -0.291600
     15 CED        78.3435   51.9873   35.9782 a3         1 CLA      0.005400
     16 CHA        77.2243   56.2941   36.4429 cs         1 CLA     -0.123800
     17 CHB        80.6357   59.1967   38.6467 aa         1 CLA     -0.291900
     18 CHC        77.2900   59.8177   42.2124 aa         1 CLA     -0.090400
     19 CHD        74.0182   56.9879   40.0511 aa         1 CLA     -0.052000
     20 CMA        81.8508   56.7364   37.1211 a3         1 CLA     -0.230700
     21 CMB        82.1318   60.9818   40.7317 a3         1 CLA     -0.180800
     22 CMC        75.1435   59.3322   44.4725 a3         1 CLA     -0.134000
     23 CMD        72.6880   55.1414   37.8875 a3         1 CLA     -0.141100
     24 C1         82.1027   53.5292   33.6863 a2         1 CLA      0.023000
     25 C1A        78.4115   57.0447   36.5876 ac         1 CLA     -0.015100
     26 C1B        80.0033   59.7292   39.7469 cr         1 CLA      0.054700
     27 C1C        76.2043   58.9462   42.0647 cn         1 CLA     -0.005600
     28 C1D        74.5639   56.6553   38.8471 ap         1 CLA     -0.047300
     29 O1A        80.8551   55.1042   31.7913 o2         1 CLA     -0.610800
     30 O1D        78.4468   54.0723   34.1550 o2         1 CLA     -0.558200
     31 C2         82.7203   52.9202   34.9196 c8         1 CLA     -0.325100
     32 C2A        79.6685   56.9144   35.7630 a1         1 CLA      0.098600
     33 C2B        80.6794   60.5094   40.7438 cb         1 CLA      0.088500
     34 C2C        75.1598   58.6690   43.1071 cb         1 CLA      0.053700
     35 C2D        74.0440   55.7484   37.8913 cb         1 CLA      0.058900
     36 O2A        81.4605   54.8321   34.0084 o1         1 CLA     -0.437200
     37 O2D        77.4842   53.1719   36.0061 o1         1 CLA     -0.357600
     38 C3         83.8754   52.2825   34.9616 c5         1 CLA      0.031200
     39 C3A        80.7856   57.6898   36.5947 a1         1 CLA      0.166800
     40 C3B        79.7459   60.8233   41.6839 cb         1 CLA      0.035000
     41 C3C        74.2383   57.8824   42.4675 cb         1 CLA     -0.089900
     42 C3D        75.0836   55.5588   36.9460 cb         1 CLA     -0.035900
     43 C4         84.1605   50.7603   34.7923 a3         1 CLA     -0.053300
     44 C4A        79.9721   58.4110   37.6842 ac         1 CLA      0.001800
     45 C4B        78.4806   60.0954   41.3515 cn         1 CLA     -0.020900
     46 C4C        74.6489   57.7172   41.0577 cr         1 CLA     -0.044400
     47 C4D        76.1008   56.3852   37.3205 c6         1 CLA     -0.046000
     48 C5         85.1378   53.1771   35.0483 a2         1 CLA     -0.070400
     49 C6         85.1676   53.8845   36.4748 a2         1 CLA      0.043900
     50 C7         86.5043   54.7658   36.5221 a2         1 CLA     -0.150000
     51 C8         86.7088   55.3605   37.9358 a1         1 CLA      0.064200
     52 C9         85.4892   56.2823   38.3985 a3         1 CLA     -0.259300
     53 C10        88.0944   55.9281   38.2291 a2         1 CLA     -0.071900
     54 C11        88.4443   56.6630   39.5196 a2         1 CLA      0.014500
     55 C12        88.1349   55.8594   40.8245 a2         1 CLA     -0.112100
     56 C13        88.1354   56.7943   42.1074 a1         1 CLA      0.089200
     57 C14        89.5810   57.2682   42.4212 a3         1 CLA     -0.239100
     58 C15        87.5081   55.9141   43.2789 a2         1 CLA     -0.102200
     59 C16        87.5243   56.3595   44.7153 a2         1 CLA      0.023900
     60 C17        86.9360   57.8033   44.9076 a2         1 CLA     -0.105700
     61 C18        85.3742   57.8375   44.7712 a1         1 CLA      0.206800
     62 C19        84.6227   57.2684   45.9525 a3         1 CLA     -0.280100
     63 C20        84.9109   59.2503   44.4458 a3         1 CLA     -0.280100
     64 NC         75.8516   58.3337   40.8846 nx         1 CLA     -0.309200
     65 MG         77.1295   58.3331   39.1958 mg         1 CLA      0.895000
     66 HMD3       72.7573   54.3030   37.2189 dc         1 CLA      0.064300
     67 HMD2       72.4353   54.8618   38.8807 dc         1 CLA      0.064300
     68 HMD1       71.9885   55.7698   37.3534 dc         1 CLA      0.064300
     69 HMC3       75.4100   60.3661   44.3178 dc         1 CLA      0.052100
     70 HMC2       74.1734   59.1133   44.8579 dc         1 CLA      0.052100
     71 HMC1       75.8864   58.8227   45.1134 dc         1 CLA      0.052100
     72 HMB3       82.2363   62.0090   40.4671 dc         1 CLA      0.063600
     73 HMB2       82.5379   60.8178   41.7559 dc         1 CLA      0.063600
     74 HMB1       82.8208   60.5095   39.9694 dc         1 CLA      0.063600
     75 HMA3       82.6371   57.3286   37.6155 dc         1 CLA      0.058300
     76 HMA2       81.4997   56.0695   37.8859 dc         1 CLA      0.058300
     77 HMA1       82.3337   56.2145   36.2981 dc         1 CLA      0.058300
     78 HED3       79.3565   52.3005   35.8019 dc         1 CLA      0.079300
     79 HED2       78.1505   51.3840   36.9319 dc         1 CLA      0.079300
     80 HED1       78.0286   51.4785   35.0624 dc         1 CLA      0.079300
     81 HBC3       73.0830   55.1236   42.3006 dc         1 CLA      0.016300
     82 HBC2       73.8147   55.5183   43.8409 dc         1 CLA      0.016300
     83 HBC1       72.0118   55.3631   43.5852 dc         1 CLA      0.016300
     84 HBB2       80.6541   63.1273   44.2150 da         1 CLA      0.183000
     85 HBB1       81.3509   63.0444   42.4854 da         1 CLA      0.183000
     86 HBA2       80.5415   57.4462   32.4680 dc         1 CLA      0.029400
     87 HBA1       81.7410   57.3015   33.7884 dc         1 CLA      0.029400
     88 HAC2       72.7678   57.5784   43.9427 dc         1 CLA      0.029300
     89 HAC1       72.0589   57.5296   42.3173 dc         1 CLA      0.029300
     90 HAA2       78.7394   57.0605   33.8404 dc         1 CLA      0.028700
     91 HAA1       79.6007   58.4522   34.1669 dc         1 CLA      0.028700
     92 H203       84.9753   59.9414   45.2686 dc         1 CLA      0.065600
     93 H202       85.5791   59.6345   43.6821 dc         1 CLA      0.065600
     94 H201       83.9485   59.1306   44.1287 dc         1 CLA      0.065600
     95 H193       84.9773   57.7867   46.8327 dc         1 CLA      0.065600
     96 H192       83.5681   57.5057   45.9372 dc         1 CLA      0.065600
     97 H191       84.7101   56.1778   46.0381 dc         1 CLA      0.065600
     98 H172       87.3032   58.1992   45.8784 dc         1 CLA      0.027600
     99 H171       87.3868   58.4806   44.1427 dc         1 CLA      0.027600
    100 H162       86.9339   55.7230   45.3358 dc         1 CLA      0.002900
    101 H161       88.5280   56.2466   44.9809 dc         1 CLA      0.002900
    102 H152       86.5281   55.8803   42.8992 dc         1 CLA      0.029100
    103 H151       87.8170   54.8513   43.2219 dc         1 CLA      0.029100
    104 H143       90.0620   57.5054   41.4438 dc         1 CLA      0.063600
    105 H142       89.6445   58.1506   43.1243 dc         1 CLA      0.063600
    106 H141       90.1480   56.4014   42.7642 dc         1 CLA      0.063600
    107 H122       87.1701   55.3443   40.6489 dc         1 CLA      0.032500
    108 H121       88.8641   55.1053   41.0407 dc         1 CLA      0.032500
    109 H112       89.5276   56.8756   39.5554 dc         1 CLA      0.006600
    110 H111       87.9542   57.6378   39.6338 dc         1 CLA      0.006600
    111 H102       88.7769   55.1169   38.1970 dc         1 CLA      0.024100
    112 H101       88.3107   56.6132   37.3778 dc         1 CLA      0.024100
    113 HHD        72.9811   56.6072   40.1592 da         1 CLA      0.174300
    114 HHC        77.2447   60.2138   43.2103 da         1 CLA      0.136800
    115 HHB        81.6609   59.3580   38.5524 da         1 CLA      0.138300
    116 HBD        76.7149   55.9318   34.4955 dc         1 CLA      0.107700
    117 HAB        79.1822   61.0855   43.6848 da         1 CLA      0.155200
    118 H93        85.2576   56.9779   37.5781 dc         1 CLA      0.069500
    119 H92        84.6913   55.5809   38.7730 dc         1 CLA      0.069500
    120 H91        85.7985   56.8872   39.2526 dc         1 CLA      0.069500
    121 H8         86.7140   54.4994   38.6042 dc         1 CLA      0.029300
    122 H72        87.3523   54.1469   36.1839 dc         1 CLA      0.044400
    123 H71        86.3292   55.5746   35.8564 dc         1 CLA      0.044400
    124 H62        84.2167   54.4418   36.7518 dc         1 CLA      0.015600
    125 H61        85.2018   53.0316   37.1248 dc         1 CLA      0.015600
    126 H52        86.0282   52.6239   35.0101 dc         1 CLA      0.033200
    127 H51        85.0432   53.8513   34.1997 dc         1 CLA      0.033200
    128 H43        84.5334   50.2603   35.6715 dc         1 CLA      0.037000
    129 H42        83.3721   50.2248   34.4488 dc         1 CLA      0.037000
    130 H41        84.9196   50.6232   34.0470 dc         1 CLA      0.037000
    131 H3A        81.2797   58.4593   36.0084 dc         1 CLA      0.041100
    132 H2A        79.8109   55.8251   35.8333 dc         1 CLA      0.083100
    133 H2         82.3037   53.3404   35.7901 da         1 CLA      0.180900
    134 H18        84.9615   57.3109   43.9316 dc         1 CLA     -0.003900
    135 H13        87.4953   57.6288   42.0055 dc         1 CLA      0.019700
    136 H12        81.3130   52.8500   33.2446 dc         1 CLA      0.120400
    137 H11        82.7933   53.6719   32.8112 dc         1 CLA      0.120400
    138 C1         70.0975   60.6825   49.4852 Z1         2 LUT      0.509236
    139 C2         68.8436   60.2664   50.3771 Z2         2 LUT     -0.434695
    140 C3         67.9591   61.2379   51.0016 Z3         2 LUT      0.437453
    141 O3         68.0617   61.2484   52.4089 S1         2 LUT     -0.547129
    142 C4         68.0519   62.6486   50.3751 Z4         2 LUT     -0.468603
    143 C5         68.6508   62.7081   48.9744 Z5         2 LUT      0.279246
    144 C6         69.6030   61.8382   48.5687 Z6         2 LUT     -0.305473
    145 C7         69.8761   61.5202   47.1295 Z7         2 LUT      0.069402
    146 C8         71.0394   61.7067   46.5041 Z8         2 LUT     -0.191631
    147 C9         71.3310   61.2960   45.1407 Z9         2 LUT      0.196698
    148 C10        72.3843   61.9099   44.4931 Y1         2 LUT     -0.208611
    149 C11        73.0330   61.7074   43.1942 Y2         2 LUT      0.030784
    150 C12        74.1969   62.4410   42.9288 Y3         2 LUT     -0.220316
    151 C13        75.1287   62.5070   41.8022 Y4         2 LUT      0.215937
    152 C14        76.2375   63.2486   41.8883 Y5         2 LUT     -0.185793
    153 C15        77.2863   63.4556   40.9846 Y6         2 LUT     -0.057835
    154 C16        70.5632   59.3068   48.8889 Y7         2 LUT     -0.405615
    155 C17        71.1206   61.1764   50.5369 Y7         2 LUT     -0.405615
    156 C18        67.8888   63.6078   48.1420 Y9         2 LUT     -0.369639
    157 C19        70.4930   60.1912   44.5086 W1         2 LUT     -0.333362
    158 C20        74.8849   61.6349   40.6029 W2         2 LUT     -0.323439
    159 C21        88.7612   64.3725   34.8261 Z1         2 LUT      0.406104
    160 C22        89.3274   63.8090   33.5474 Z2         2 LUT     -0.404965
    161 C23        89.4226   64.7183   32.3572 Z3         2 LUT      0.391255
    162 O23        89.8139   63.8358   31.3133 S1         2 LUT     -0.528210
    163 C24        88.1195   65.3556   32.1699 W6         2 LUT     -0.258361
    164 C25        87.1615   65.4735   33.0737 Z5         2 LUT      0.133546
    165 C26        87.2497   64.8653   34.5213 W8         2 LUT     -0.147008
    166 C27        86.5831   65.6633   35.6839 Z7         2 LUT      0.023843
    167 C28        85.5765   65.2086   36.4295 Z8         2 LUT     -0.216987
    168 C29        85.0736   65.6889   37.6785 Z9         2 LUT      0.206524
    169 C30        83.8386   65.1236   38.0889 Y1         2 LUT     -0.215556
    170 C31        83.0414   65.2932   39.2611 Y2         2 LUT      0.025142
    171 C32        81.8125   64.6628   39.3674 Y3         2 LUT     -0.212209
    172 C33        80.9065   64.6829   40.4936 Y4         2 LUT      0.240937
    173 C34        79.6053   64.1827   40.3909 Y5         2 LUT     -0.218862
    174 C35        78.4899   64.1018   41.3386 Y6         2 LUT     -0.023547
    175 C36        89.6494   65.5916   35.2910 Y7         2 LUT     -0.393485
    176 C37        88.8768   63.3858   35.9198 Y7         2 LUT     -0.393485
    177 C38        85.9638   66.3393   32.9135 Y9         2 LUT     -0.387526
    178 C39        85.7005   66.7127   38.5102 W1         2 LUT     -0.322618
    179 C40        81.3113   65.5599   41.6249 W2         2 LUT     -0.358472
    180 H403       82.3162   65.4544   41.9911 R7         2 LUT      0.097720
    181 H402       81.2724   66.5426   41.2194 R7         2 LUT      0.097720
    182 H401       80.7151   65.4518   42.4963 R7         2 LUT      0.097720
    183 H393       85.8601   66.3476   39.5517 R4         2 LUT      0.082505
    184 H392       86.7217   66.7798   38.1968 R4         2 LUT      0.082505
    185 H391       85.2105   67.6740   38.3841 R4         2 LUT      0.082505
    186 H383       85.5868   66.3054   31.8850 R1         2 LUT      0.104030
    187 H382       85.1208   66.0967   33.6395 R1         2 LUT      0.104030
    188 H381       86.2395   67.3846   32.8891 R1         2 LUT      0.104030
    189 H373       89.9491   63.1895   36.1757 T4         2 LUT      0.089537
    190 H372       88.3501   63.7413   36.7772 T4         2 LUT      0.089537
    191 H371       88.3951   62.4174   35.5744 T4         2 LUT      0.089537
    192 H363       89.4950   66.4849   34.6093 T4         2 LUT      0.089537
    193 H362       89.4795   65.9766   36.2641 T4         2 LUT      0.089537
    194 H361       90.6862   65.4061   35.2832 T4         2 LUT      0.089537
    195 H222       90.3749   63.5376   33.7920 U2         2 LUT      0.127376
    196 H221       88.7527   62.9342   33.2930 U2         2 LUT      0.127376
    197 H203       74.5886   60.6183   40.8572 R7         2 LUT      0.087068
    198 H202       74.1263   62.0625   39.9074 R7         2 LUT      0.087068
    199 H201       75.7811   61.4199   39.9988 R7         2 LUT      0.087068
    200 H193       70.0011   60.3828   43.5414 R4         2 LUT      0.089716
    201 H192       71.1920   59.3830   44.1740 R4         2 LUT      0.089716
    202 H191       69.7036   59.8887   45.1370 R4         2 LUT      0.089716
    203 H183       68.4042   64.0851   47.3231 R1         2 LUT      0.094572
    204 H182       66.9655   63.0341   47.9344 R1         2 LUT      0.094572
    205 H181       67.7319   64.5371   48.7050 R1         2 LUT      0.094572
    206 H173       70.5328   61.7575   51.1930 T4         2 LUT      0.093752
    207 H172       71.4501   60.2755   51.1098 T4         2 LUT      0.093752
    208 H171       72.0665   61.6376   50.2341 T4         2 LUT      0.093752
    209 H163       71.3827   59.5797   48.1800 T4         2 LUT      0.093752
    210 H162       70.8033   58.5215   49.6397 T4         2 LUT      0.093752
    211 H161       69.7386   58.7669   48.3915 T4         2 LUT      0.093752
    212 HO3        67.2541   61.5972   52.8114 Q1         2 LUT      0.300121
    213 H8         71.7955   62.0848   47.1365 U7         2 LUT      0.080784
    214 H7         68.9726   61.3160   46.5579 U6         2 LUT      0.042190
    215 H42        67.0757   63.1364   50.4510 U5         2 LUT      0.145166
    216 H41        68.6748   63.2121   51.1182 U5         2 LUT      0.145166
    217 H35        78.6025   64.3559   42.4031 T3         2 LUT      0.077919
    218 H34        79.2376   63.7029   39.4866 T2         2 LUT      0.073626
    219 H32        81.4596   63.9959   38.5849 T1         2 LUT      0.092510
    220 H31        83.3805   66.0025   39.9679 U9         2 LUT      0.070048
    221 H30        83.4856   64.2973   37.4073 U8         2 LUT      0.085442
    222 H3         66.9116   60.8170   50.7376 U3         2 LUT     -0.031596
    223 H28        85.0797   64.2679   36.0945 U7         2 LUT      0.084728
    224 H27        87.0973   66.5821   35.9601 U6         2 LUT      0.087291
    225 H26        86.7019   64.0087   34.3260 Q6         2 LUT      0.075325
    226 H24        88.0564   65.8817   31.2102 Q5         2 LUT      0.094482
    227 H23        90.2446   65.4355   32.4646 U3         2 LUT     -0.024869
    228 H22        68.0981   59.7664   49.7112 U2         2 LUT      0.127376
    229 H21        69.1628   59.6160   51.2209 U2         2 LUT      0.127376
    230 H15        77.1780   63.0749   39.9724 T3         2 LUT      0.093200
    231 H14        76.3941   63.5917   42.8924 T2         2 LUT      0.068865
    232 H12        74.5126   63.1576   43.7415 T1         2 LUT      0.095507
    233 H11        72.6443   61.0466   42.3926 U9         2 LUT      0.068930
    234 H10        73.0444   62.5704   45.0755 U8         2 LUT      0.083911
    235 H1         90.0942   64.2547   30.5341 Q1         2 LUT      0.297311
@<TRIPOS>BOND
    1     6     1 1
    2     7     2 1
    3     8     3 1
    4     9     4 1
    5    11     4 1
    6    12     6 1
    7    13     9 1
    8    16     9 1
    9    25     5 1
   10    25    16 1
   11    26    10 1
   12    26    17 1
   13    27    18 1
   14    28    14 1
   15    28    19 1
   16    29    12 1
   17    30    13 1
   18    31    24 1
   19    32     1 1
   20    32    25 1
   21    33    21 1
   22    33    26 1
   23    34    22 1
   24    34    27 1
   25    35    23 1
   26    35    28 1
   27    36    12 1
   28    36    24 1
   29    37    13 1
   30    37    15 1
   31    38    31 1
   32    39    20 1
   33    39    32 1
   34    40     2 1
   35    40    33 1
   36    41     3 1
   37    41    34 1
   38    42     4 1
   39    42    35 1
   40    43    38 1
   41    44     5 1
   42    44    17 1
   43    44    39 1
   44    45    10 1
   45    45    18 1
   46    45    40 1
   47    46    19 1
   48    46    41 1
   49    47    14 1
   50    47    16 1
   51    47    42 1
   52    48    38 1
   53    49    48 1
   54    50    49 1
   55    51    50 1
   56    52    51 1
   57    53    51 1
   58    54    53 1
   59    55    54 1
   60    56    55 1
   61    57    56 1
   62    58    56 1
   63    59    58 1
   64    60    59 1
   65    61    60 1
   66    62    61 1
   67    63    61 1
   68    64    27 1
   69    64    46 1
   70    65     5 1
   71    65    10 1
   72    65    64 1
   73    65    14 1
   74    66    23 1
   75    67    23 1
   76    68    23 1
   77    69    22 1
   78    70    22 1
   79    71    22 1
   80    72    21 1
   81    73    21 1
   82    74    21 1
   83    75    20 1
   84    76    20 1
   85    77    20 1
   86    78    15 1
   87    79    15 1
   88    80    15 1
   89    81     8 1
   90    82     8 1
   91    83     8 1
   92    84     7 1
   93    85     7 1
   94    86     6 1
   95    87     6 1
   96    88     3 1
   97    89     3 1
   98    90     1 1
   99    91     1 1
  100    92    63 1
  101    93    63 1
  102    94    63 1
  103    95    62 1
  104    96    62 1
  105    97    62 1
  106    98    60 1
  107    99    60 1
  108   100    59 1
  109   101    59 1
  110   102    58 1
  111   103    58 1
  112   104    57 1
  113   105    57 1
  114   106    57 1
  115   107    55 1
  116   108    55 1
  117   109    54 1
  118   110    54 1
  119   111    53 1
  120   112    53 1
  121   113    19 1
  122   114    18 1
  123   115    17 1
  124   116     9 1
  125   117     2 1
  126   118    52 1
  127   119    52 1
  128   120    52 1
  129   121    51 1
  130   122    50 1
  131   123    50 1
  132   124    49 1
  133   125    49 1
  134   126    48 1
  135   127    48 1
  136   128    43 1
  137   129    43 1
  138   130    43 1
  139   131    39 1
  140   132    32 1
  141   133    31 1
  142   134    61 1
  143   135    56 1
  144   136    24 1
  145   137    24 1
  146   139   138 1
  147   140   139 1
  148   141   140 1
  149   142   140 1
  150   143   142 1
  151   144   138 1
  152   144   143 1
  153   145   144 1
  154   146   145 1
  155   147   146 1
  156   148   147 1
  157   149   148 1
  158   150   149 1
  159   151   150 1
  160   152   151 1
  161   153   152 1
  162   154   138 1
  163   155   138 1
  164   156   143 1
  165   157   147 1
  166   158   151 1
  167   160   159 1
  168   161   160 1
  169   162   161 1
  170   163   161 1
  171   164   163 1
  172   165   159 1
  173   165   164 1
  174   166   165 1
  175   167   166 1
  176   168   167 1
  177   169   168 1
  178   170   169 1
  179   171   170 1
  180   172   171 1
  181   173   172 1
  182   174   153 1
  183   174   173 1
  184   175   159 1
  185   176   159 1
  186   177   164 1
  187   178   168 1
  188   179   172 1
  189   180   179 1
  190   181   179 1
  191   182   179 1
  192   183   178 1
  193   184   178 1
  194   185   178 1
  195   186   177 1
  196   187   177 1
  197   188   177 1
  198   189   176 1
  199   190   176 1
  200   191   176 1
  201   192   175 1
  202   193   175 1
  203   194   175 1
  204   195   160 1
  205   196   160 1
  206   197   158 1
  207   198   158 1
  208   199   158 1
  209   200   157 1
  210   201   157 1
  211   202   157 1
  212   203   156 1
  213   204   156 1
  214   205   156 1
  215   206   155 1
  216   207   155 1
  217   208   155 1
  218   209   154 1
  219   210   154 1
  220   211   154 1
  221   212   141 1
  222   213   146 1
  223   214   145 1
  224   215   142 1
  225   216   142 1
  226   217   174 1
  227   218   173 1
  228   219   171 1
  229   220   170 1
  230   221   169 1
  231   222   140 1
  232   223   167 1
  233   224   166 1
  234   225   165 1
  235   226   163 1
  236   227   161 1
  237   228   139 1
  238   229   139 1
  239   230   153 1
  240   231   152 1
  241   232   150 1
  242   233   149 1
  243   234   148 1
  244   235   162 1
  245   65    153 1
  246   65    174 1
@<TRIPOS>SUBSTRUCTURE
      1 CLA               1 ****               0 ****  **** 
      2 LUT             138 ****               0 ****  **** 
