@<TRIPOS>MOLECULE
Cpptraj generated mol2 file.
  235   246     2     0     0
SMALL
USER_CHARGES


@<TRIPOS>ATOM
      1 CAA        78.9590   57.8079   35.0531 a2         1 CLA     -0.055900
      2 CAB        78.5904   61.5890   44.2376 c8         1 CLA     -0.148500
      3 CAC        71.8792   57.1342   43.4617 a2         1 CLA     -0.012600
      4 CAD        74.9309   55.0412   36.2462 ck         1 CLA      0.398800
      5 NA         77.9443   58.1966   38.5322 ns         1 CLA     -0.225500
      6 CBA        80.2081   57.8266   34.1642 a2         1 CLA     -0.135000
      7 CBB        79.4859   61.3177   45.1620 c0         1 CLA     -0.395200
      8 CBC        72.0574   55.6762   43.8448 a3         1 CLA     -0.037700
      9 CBD        76.3227   55.6952   35.9651 a1         1 CLA     -0.053900
     10 NB         77.6613   59.6397   41.1996 nm         1 CLA     -0.295700
     11 OBD        74.3686   54.2674   35.4945 o2         1 CLA     -0.494600
     12 CGA        80.8891   56.4755   33.8676 c4         1 CLA      0.827000
     13 CGD        77.1846   54.5114   35.5943 c4         1 CLA      0.655300
     14 ND         75.1983   57.0683   39.0899 nm         1 CLA     -0.291600
     15 CED        77.5010   52.1696   36.0155 a3         1 CLA      0.005400
     16 CHA        76.7382   56.5848   37.1444 cs         1 CLA     -0.123800
     17 CHB        79.5473   59.6341   39.6288 aa         1 CLA     -0.291900
     18 CHC        76.2399   59.8258   43.2475 aa         1 CLA     -0.090400
     19 CHD        73.2752   57.0449   40.6178 aa         1 CLA     -0.052000
     20 CMA        81.3679   58.0664   37.6687 a3         1 CLA     -0.230700
     21 CMB        80.9111   61.4268   41.8854 a3         1 CLA     -0.180800
     22 CMC        73.7591   59.3830   45.1444 a3         1 CLA     -0.134000
     23 CMD        72.0356   55.0757   38.3994 a3         1 CLA     -0.141100
     24 C1         81.5953   54.4652   34.9444 a2         1 CLA      0.023000
     25 C1A        77.8331   57.4193   37.3617 ac         1 CLA     -0.015100
     26 C1B        78.9227   60.0493   40.8150 cr         1 CLA      0.054700
     27 C1C        75.1070   59.0754   42.8715 cn         1 CLA     -0.005600
     28 C1D        73.8726   56.6862   39.3908 ap         1 CLA     -0.047300
     29 O1A        80.8531   55.9085   32.7489 o2         1 CLA     -0.610800
     30 O1D        78.1342   54.5256   34.8335 o2         1 CLA     -0.558200
     31 C2         81.2659   54.1037   36.3877 c8         1 CLA     -0.325100
     32 C2A        79.1386   57.4189   36.5627 a1         1 CLA      0.098600
     33 C2B        79.4858   60.8615   41.8719 cb         1 CLA      0.088500
     34 C2C        73.9740   58.8040   43.7954 cb         1 CLA      0.053700
     35 C2D        73.3966   55.6862   38.4396 cb         1 CLA      0.058900
     36 O2A        81.3734   55.8919   35.0415 o1         1 CLA     -0.437200
     37 O2D        76.7398   53.3843   36.3174 o1         1 CLA     -0.357600
     38 C3         82.1687   53.4648   37.1762 c5         1 CLA      0.031200
     39 C3A        79.9193   58.5330   37.3124 a1         1 CLA      0.166800
     40 C3B        78.5275   60.9033   42.9186 cb         1 CLA      0.035000
     41 C3C        73.1663   57.8635   43.0505 cb         1 CLA     -0.089900
     42 C3D        74.5284   55.6074   37.5828 cb         1 CLA     -0.035900
     43 C4         82.4062   51.9871   37.1724 a3         1 CLA     -0.053300
     44 C4A        79.1024   58.7881   38.5696 ac         1 CLA      0.001800
     45 C4B        77.3968   60.1182   42.4546 cn         1 CLA     -0.020900
     46 C4C        73.7818   57.7455   41.7123 cr         1 CLA     -0.044400
     47 C4D        75.5928   56.4974   37.9841 c6         1 CLA     -0.046000
     48 C5         82.8928   54.2746   38.2328 a2         1 CLA     -0.070400
     49 C6         84.3756   54.5145   38.1041 a2         1 CLA      0.043900
     50 C7         84.9888   55.2591   39.2773 a2         1 CLA     -0.150000
     51 C8         84.9788   56.8117   39.0731 a1         1 CLA      0.064200
     52 C9         86.0779   57.3143   38.1506 a3         1 CLA     -0.259300
     53 C10        85.1178   57.6476   40.3848 a2         1 CLA     -0.071900
     54 C11        83.9068   57.6283   41.3173 a2         1 CLA      0.014500
     55 C12        84.0151   58.6994   42.5088 a2         1 CLA     -0.112100
     56 C13        85.1013   58.3350   43.6306 a1         1 CLA      0.089200
     57 C14        84.9641   56.9516   44.3213 a3         1 CLA     -0.239100
     58 C15        85.3229   59.4709   44.6219 a2         1 CLA     -0.102200
     59 C16        84.1373   59.9545   45.4655 a2         1 CLA      0.023900
     60 C17        84.6309   61.0776   46.3558 a2         1 CLA     -0.105700
     61 C18        83.4922   61.6844   47.2705 a1         1 CLA      0.206800
     62 C19        82.5521   60.7165   48.0102 a3         1 CLA     -0.280100
     63 C20        83.9717   62.6976   48.3298 a3         1 CLA     -0.280100
     64 NC         74.9960   58.4577   41.6364 nx         1 CLA     -0.309200
     65 MG         76.4086   58.4530   40.0449 mg         1 CLA      0.895000
     66 HMD3       71.7633   55.4446   37.4000 dc         1 CLA      0.064300
     67 HMD2       72.0713   53.9667   38.5750 dc         1 CLA      0.064300
     68 HMD1       71.4059   55.5689   39.1106 dc         1 CLA      0.064300
     69 HMC3       74.4971   58.8225   45.7541 dc         1 CLA      0.052100
     70 HMC2       74.2015   60.3891   45.1819 dc         1 CLA      0.052100
     71 HMC1       72.6924   59.3692   45.4333 dc         1 CLA      0.052100
     72 HMB3       81.3974   61.6124   42.8845 dc         1 CLA      0.063600
     73 HMB2       81.6161   60.7539   41.3473 dc         1 CLA      0.063600
     74 HMB1       81.0395   62.4383   41.4586 dc         1 CLA      0.063600
     75 HMA3       81.8221   58.7844   38.3735 dc         1 CLA      0.058300
     76 HMA2       81.3997   57.1680   38.3276 dc         1 CLA      0.058300
     77 HMA1       82.0105   57.8831   36.7604 dc         1 CLA      0.058300
     78 HED3       77.4473   51.9850   34.9494 dc         1 CLA      0.079300
     79 HED2       78.5739   52.2421   36.2862 dc         1 CLA      0.079300
     80 HED1       77.1609   51.2679   36.5266 dc         1 CLA      0.079300
     81 HBC3       71.0951   55.2376   44.1021 dc         1 CLA      0.016300
     82 HBC2       72.4376   55.0567   43.0663 dc         1 CLA      0.016300
     83 HBC1       72.6652   55.5960   44.7752 dc         1 CLA      0.016300
     84 HBB2       79.5036   61.6781   46.1641 da         1 CLA      0.183000
     85 HBB1       80.2608   60.6441   45.0124 da         1 CLA      0.183000
     86 HBA2       79.8705   58.1511   33.2483 dc         1 CLA      0.029400
     87 HBA1       81.0393   58.4532   34.5702 dc         1 CLA      0.029400
     88 HAC2       71.4161   57.6277   44.3322 dc         1 CLA      0.029300
     89 HAC1       71.1148   57.2986   42.7393 dc         1 CLA      0.029300
     90 HAA2       78.2635   57.2013   34.6771 dc         1 CLA      0.028700
     91 HAA1       78.5416   58.8342   35.1112 dc         1 CLA      0.028700
     92 H203       84.7065   63.3613   47.8539 dc         1 CLA      0.065600
     93 H202       83.1242   63.3314   48.7086 dc         1 CLA      0.065600
     94 H201       84.5835   62.1797   49.0746 dc         1 CLA      0.065600
     95 H193       82.0654   60.1329   47.1893 dc         1 CLA      0.065600
     96 H192       82.9618   60.0704   48.7791 dc         1 CLA      0.065600
     97 H191       81.7696   61.3019   48.5091 dc         1 CLA      0.065600
     98 H172       85.4590   60.6298   46.9273 dc         1 CLA      0.027600
     99 H171       85.0025   61.8729   45.7775 dc         1 CLA      0.027600
    100 H162       83.3543   60.3346   44.7949 dc         1 CLA      0.002900
    101 H161       83.7838   59.0889   45.9499 dc         1 CLA      0.002900
    102 H152       86.1322   59.1616   45.3040 dc         1 CLA      0.029100
    103 H151       85.8168   60.2993   44.0439 dc         1 CLA      0.029100
    104 H143       85.7005   56.8605   45.1257 dc         1 CLA      0.063600
    105 H142       83.9879   57.0076   44.7554 dc         1 CLA      0.063600
    106 H141       85.0334   56.3173   43.4610 dc         1 CLA      0.063600
    107 H122       84.2028   59.7159   42.1682 dc         1 CLA      0.032500
    108 H121       83.1283   58.6065   43.0820 dc         1 CLA      0.032500
    109 H112       82.9614   57.8880   40.8378 dc         1 CLA      0.006600
    110 H111       83.7174   56.6861   41.8145 dc         1 CLA      0.006600
    111 H102       85.9954   57.1596   40.9012 dc         1 CLA      0.024100
    112 H101       85.2858   58.6946   40.0709 dc         1 CLA      0.024100
    113 HHD        72.3034   56.6345   40.7246 da         1 CLA      0.174300
    114 HHC        76.3435   60.1839   44.2806 da         1 CLA      0.136800
    115 HHB        80.4726   60.1634   39.4080 da         1 CLA      0.138300
    116 HBD        76.1748   56.3566   35.1097 dc         1 CLA      0.107700
    117 HAB        77.9150   62.3526   44.6065 da         1 CLA      0.155200
    118 H93        85.9984   58.4175   38.0298 dc         1 CLA      0.069500
    119 H92        87.1435   57.1400   38.4551 dc         1 CLA      0.069500
    120 H91        85.9281   56.7416   37.2224 dc         1 CLA      0.069500
    121 H8         83.9711   57.1023   38.7638 dc         1 CLA      0.029300
    122 H72        84.3823   54.9948   40.1448 dc         1 CLA      0.044400
    123 H71        86.0071   54.9548   39.4736 dc         1 CLA      0.044400
    124 H62        84.7713   53.4939   38.0498 dc         1 CLA      0.015600
    125 H61        84.5343   55.0068   37.1441 dc         1 CLA      0.015600
    126 H52        82.3523   55.1871   38.3372 dc         1 CLA      0.033200
    127 H51        82.6657   53.7127   39.1272 dc         1 CLA      0.033200
    128 H43        82.2121   51.6599   38.1924 dc         1 CLA      0.037000
    129 H42        81.7750   51.4977   36.4991 dc         1 CLA      0.037000
    130 H41        83.4381   51.8023   36.9031 dc         1 CLA      0.037000
    131 H3A        79.8703   59.4785   36.8148 dc         1 CLA      0.041100
    132 H2A        79.6175   56.4909   36.7045 dc         1 CLA      0.083100
    133 H2         80.2524   54.2329   36.7346 da         1 CLA      0.180900
    134 H18        82.8405   62.2471   46.5586 dc         1 CLA     -0.003900
    135 H13        86.0008   58.3120   42.9686 dc         1 CLA      0.019700
    136 H12        80.8857   53.9823   34.2703 dc         1 CLA      0.120400
    137 H11        82.6148   54.1585   34.5376 dc         1 CLA      0.120400
    138 C1         68.8359   60.6804   50.5025 Z1         2 LUT      0.509236
    139 C2         67.4212   60.3221   51.0887 Z2         2 LUT     -0.434695
    140 C3         66.5055   61.5441   51.3448 Z3         2 LUT      0.437453
    141 O3         66.5470   62.1347   52.6658 S1         2 LUT     -0.547129
    142 C4         66.7293   62.7400   50.4034 Z4         2 LUT     -0.468603
    143 C5         67.4974   62.4158   49.1852 Z5         2 LUT      0.279246
    144 C6         68.4962   61.5266   49.1762 Z6         2 LUT     -0.305473
    145 C7         69.0995   61.0239   47.9376 Z7         2 LUT      0.069402
    146 C8         69.8020   61.7348   47.1170 Z8         2 LUT     -0.191631
    147 C9         70.2886   61.1840   45.8346 Z9         2 LUT      0.196698
    148 C10        71.2489   62.0271   45.2606 Y1         2 LUT     -0.208611
    149 C11        72.1087   62.0228   44.1040 Y2         2 LUT      0.030784
    150 C12        73.2655   62.6595   43.7680 Y3         2 LUT     -0.220316
    151 C13        74.0250   62.6514   42.5572 Y4         2 LUT      0.215937
    152 C14        75.2345   63.4259   42.5978 Y5         2 LUT     -0.185793
    153 C15        76.2146   63.4104   41.6050 Y6         2 LUT     -0.057835
    154 C16        69.5602   59.2669   50.3872 Y7         2 LUT     -0.405615
    155 C17        69.4970   61.4873   51.6924 Y7         2 LUT     -0.405615
    156 C18        66.9200   63.1657   47.9492 Y9         2 LUT     -0.369639
    157 C19        69.8712   59.7914   45.2447 W1         2 LUT     -0.333362
    158 C20        73.6642   61.7226   41.3015 W2         2 LUT     -0.323439
    159 C21        87.2383   64.8916   35.3481 Z1         2 LUT      0.406104
    160 C22        87.8673   64.3040   34.1206 Z2         2 LUT     -0.404965
    161 C23        88.1157   65.2413   33.0351 Z3         2 LUT      0.391255
    162 O23        88.7711   64.3505   32.1105 S1         2 LUT     -0.528210
    163 C24        86.8349   65.9714   32.6784 W6         2 LUT     -0.258361
    164 C25        85.7916   66.1850   33.5301 Z5         2 LUT      0.133546
    165 C26        85.8452   65.3729   34.8973 W8         2 LUT     -0.147008
    166 C27        84.9817   66.0621   35.9655 Z7         2 LUT      0.023843
    167 C28        83.7274   65.7325   36.3812 Z8         2 LUT     -0.216987
    168 C29        83.1253   66.1616   37.6308 Z9         2 LUT      0.206524
    169 C30        82.2376   65.3072   38.2340 Y1         2 LUT     -0.215556
    170 C31        81.4549   65.6043   39.3506 Y2         2 LUT      0.025142
    171 C32        80.4777   64.6528   39.7071 Y3         2 LUT     -0.212209
    172 C33        79.5733   64.9008   40.8543 Y4         2 LUT      0.240937
    173 C34        78.4659   64.1224   40.7835 Y5         2 LUT     -0.218862
    174 C35        77.3611   64.1197   41.6585 Y6         2 LUT     -0.023547
    175 C36        88.1945   65.8671   36.1607 Y7         2 LUT     -0.393485
    176 C37        87.1553   63.7426   36.4573 Y7         2 LUT     -0.393485
    177 C38        84.5616   66.9682   33.0745 Y9         2 LUT     -0.387526
    178 C39        83.6077   67.5045   38.2187 W1         2 LUT     -0.322618
    179 C40        79.9262   65.9424   41.8937 W2         2 LUT     -0.358472
    180 H403       80.8489   65.8424   42.4457 R7         2 LUT      0.097720
    181 H402       79.7793   66.9317   41.4684 R7         2 LUT      0.097720
    182 H401       79.1701   65.8826   42.6974 R7         2 LUT      0.097720
    183 H393       82.7781   68.0074   38.6594 R4         2 LUT      0.082505
    184 H392       84.4267   67.3784   38.9132 R4         2 LUT      0.082505
    185 H391       84.0582   68.2304   37.5290 R4         2 LUT      0.082505
    186 H383       83.9400   66.3151   32.4321 R1         2 LUT      0.104030
    187 H382       83.9220   67.3776   33.8335 R1         2 LUT      0.104030
    188 H381       84.8148   67.9427   32.4891 R1         2 LUT      0.104030
    189 H373       88.1155   63.3441   36.7019 T4         2 LUT      0.089537
    190 H372       86.6823   63.9719   37.3889 T4         2 LUT      0.089537
    191 H371       86.6464   62.8542   36.0223 T4         2 LUT      0.089537
    192 H363       88.1155   66.8415   35.7042 T4         2 LUT      0.089537
    193 H362       87.7914   66.0028   37.1940 T4         2 LUT      0.089537
    194 H361       89.1924   65.4817   36.1276 T4         2 LUT      0.089537
    195 H222       88.7400   63.7159   34.3628 U2         2 LUT      0.127376
    196 H221       87.2646   63.5156   33.6634 U2         2 LUT      0.127376
    197 H203       73.2237   62.1716   40.4854 R7         2 LUT      0.087068
    198 H202       74.4910   61.3057   40.7956 R7         2 LUT      0.087068
    199 H201       73.0777   60.7387   41.4344 R7         2 LUT      0.087068
    200 H193       70.5331   58.9759   45.5484 R4         2 LUT      0.089716
    201 H192       68.8566   59.4938   45.3621 R4         2 LUT      0.089716
    202 H191       69.9977   59.7301   44.1559 R4         2 LUT      0.089716
    203 H183       65.8148   63.1134   47.9114 R1         2 LUT      0.094572
    204 H182       67.2558   64.1782   48.0569 R1         2 LUT      0.094572
    205 H181       67.3166   62.7103   46.9903 R1         2 LUT      0.094572
    206 H173       69.3553   60.9483   52.6382 T4         2 LUT      0.093752
    207 H172       70.5890   61.5631   51.5393 T4         2 LUT      0.093752
    208 H171       69.1336   62.5278   51.7657 T4         2 LUT      0.093752
    209 H163       69.6925   58.8462   51.3880 T4         2 LUT      0.093752
    210 H162       69.0359   58.4335   49.8852 T4         2 LUT      0.093752
    211 H161       70.5295   59.5311   49.8475 T4         2 LUT      0.093752
    212 HO3        66.0764   61.5879   53.3193 Q1         2 LUT      0.300121
    213 H8         69.9681   62.7393   47.5021 U7         2 LUT      0.080784
    214 H7         68.9421   59.9752   47.6661 U6         2 LUT      0.042190
    215 H42        65.7712   63.2219   50.1648 U5         2 LUT      0.145166
    216 H41        67.4126   63.4808   50.9114 U5         2 LUT      0.145166
    217 H35        77.2104   64.9761   42.3334 T3         2 LUT      0.077919
    218 H34        78.3922   63.4068   39.9555 T2         2 LUT      0.073626
    219 H32        80.3821   63.7627   39.0640 T1         2 LUT      0.092510
    220 H31        81.5242   66.5681   39.8075 U9         2 LUT      0.070048
    221 H30        81.9629   64.4301   37.6708 U8         2 LUT      0.085442
    222 H3         65.4737   61.1955   51.1996 U3         2 LUT     -0.031596
    223 H28        83.1035   65.0568   35.6538 U7         2 LUT      0.084728
    224 H27        85.6424   66.7389   36.4937 U6         2 LUT      0.087291
    225 H26        85.2807   64.5022   34.5780 Q6         2 LUT      0.075325
    226 H24        86.8436   66.5151   31.7333 Q5         2 LUT      0.094482
    227 H23        88.8378   66.0152   33.4828 U3         2 LUT     -0.024869
    228 H22        66.9714   59.6179   50.3603 U2         2 LUT      0.127376
    229 H21        67.5691   59.7018   52.0393 U2         2 LUT      0.127376
    230 H15        76.1586   62.6540   40.7594 T3         2 LUT      0.093200
    231 H14        75.5904   63.8529   43.5547 T2         2 LUT      0.068865
    232 H12        73.6570   63.2289   44.5853 T1         2 LUT      0.095507
    233 H11        71.7415   61.3999   43.3484 U9         2 LUT      0.068930
    234 H10        71.3634   63.0062   45.7917 U8         2 LUT      0.083911
    235 H1         88.9617   64.8110   31.2848 Q1         2 LUT      0.297311
@<TRIPOS>BOND
    1     6     1 1
    2     7     2 1
    3     8     3 1
    4     9     4 1
    5    11     4 1
    6    12     6 1
    7    13     9 1
    8    16     9 1
    9    25     5 1
   10    25    16 1
   11    26    10 1
   12    26    17 1
   13    27    18 1
   14    28    14 1
   15    28    19 1
   16    29    12 1
   17    30    13 1
   18    31    24 1
   19    32     1 1
   20    32    25 1
   21    33    21 1
   22    33    26 1
   23    34    22 1
   24    34    27 1
   25    35    23 1
   26    35    28 1
   27    36    12 1
   28    36    24 1
   29    37    13 1
   30    37    15 1
   31    38    31 1
   32    39    20 1
   33    39    32 1
   34    40     2 1
   35    40    33 1
   36    41     3 1
   37    41    34 1
   38    42     4 1
   39    42    35 1
   40    43    38 1
   41    44     5 1
   42    44    17 1
   43    44    39 1
   44    45    10 1
   45    45    18 1
   46    45    40 1
   47    46    19 1
   48    46    41 1
   49    47    14 1
   50    47    16 1
   51    47    42 1
   52    48    38 1
   53    49    48 1
   54    50    49 1
   55    51    50 1
   56    52    51 1
   57    53    51 1
   58    54    53 1
   59    55    54 1
   60    56    55 1
   61    57    56 1
   62    58    56 1
   63    59    58 1
   64    60    59 1
   65    61    60 1
   66    62    61 1
   67    63    61 1
   68    64    27 1
   69    64    46 1
   70    65     5 1
   71    65    10 1
   72    65    64 1
   73    65    14 1
   74    66    23 1
   75    67    23 1
   76    68    23 1
   77    69    22 1
   78    70    22 1
   79    71    22 1
   80    72    21 1
   81    73    21 1
   82    74    21 1
   83    75    20 1
   84    76    20 1
   85    77    20 1
   86    78    15 1
   87    79    15 1
   88    80    15 1
   89    81     8 1
   90    82     8 1
   91    83     8 1
   92    84     7 1
   93    85     7 1
   94    86     6 1
   95    87     6 1
   96    88     3 1
   97    89     3 1
   98    90     1 1
   99    91     1 1
  100    92    63 1
  101    93    63 1
  102    94    63 1
  103    95    62 1
  104    96    62 1
  105    97    62 1
  106    98    60 1
  107    99    60 1
  108   100    59 1
  109   101    59 1
  110   102    58 1
  111   103    58 1
  112   104    57 1
  113   105    57 1
  114   106    57 1
  115   107    55 1
  116   108    55 1
  117   109    54 1
  118   110    54 1
  119   111    53 1
  120   112    53 1
  121   113    19 1
  122   114    18 1
  123   115    17 1
  124   116     9 1
  125   117     2 1
  126   118    52 1
  127   119    52 1
  128   120    52 1
  129   121    51 1
  130   122    50 1
  131   123    50 1
  132   124    49 1
  133   125    49 1
  134   126    48 1
  135   127    48 1
  136   128    43 1
  137   129    43 1
  138   130    43 1
  139   131    39 1
  140   132    32 1
  141   133    31 1
  142   134    61 1
  143   135    56 1
  144   136    24 1
  145   137    24 1
  146   139   138 1
  147   140   139 1
  148   141   140 1
  149   142   140 1
  150   143   142 1
  151   144   138 1
  152   144   143 1
  153   145   144 1
  154   146   145 1
  155   147   146 1
  156   148   147 1
  157   149   148 1
  158   150   149 1
  159   151   150 1
  160   152   151 1
  161   153   152 1
  162   154   138 1
  163   155   138 1
  164   156   143 1
  165   157   147 1
  166   158   151 1
  167   160   159 1
  168   161   160 1
  169   162   161 1
  170   163   161 1
  171   164   163 1
  172   165   159 1
  173   165   164 1
  174   166   165 1
  175   167   166 1
  176   168   167 1
  177   169   168 1
  178   170   169 1
  179   171   170 1
  180   172   171 1
  181   173   172 1
  182   174   153 1
  183   174   173 1
  184   175   159 1
  185   176   159 1
  186   177   164 1
  187   178   168 1
  188   179   172 1
  189   180   179 1
  190   181   179 1
  191   182   179 1
  192   183   178 1
  193   184   178 1
  194   185   178 1
  195   186   177 1
  196   187   177 1
  197   188   177 1
  198   189   176 1
  199   190   176 1
  200   191   176 1
  201   192   175 1
  202   193   175 1
  203   194   175 1
  204   195   160 1
  205   196   160 1
  206   197   158 1
  207   198   158 1
  208   199   158 1
  209   200   157 1
  210   201   157 1
  211   202   157 1
  212   203   156 1
  213   204   156 1
  214   205   156 1
  215   206   155 1
  216   207   155 1
  217   208   155 1
  218   209   154 1
  219   210   154 1
  220   211   154 1
  221   212   141 1
  222   213   146 1
  223   214   145 1
  224   215   142 1
  225   216   142 1
  226   217   174 1
  227   218   173 1
  228   219   171 1
  229   220   170 1
  230   221   169 1
  231   222   140 1
  232   223   167 1
  233   224   166 1
  234   225   165 1
  235   226   163 1
  236   227   161 1
  237   228   139 1
  238   229   139 1
  239   230   153 1
  240   231   152 1
  241   232   150 1
  242   233   149 1
  243   234   148 1
  244   235   162 1
  245   65    153 1
  246   65    174 1
@<TRIPOS>SUBSTRUCTURE
      1 CLA               1 ****               0 ****  **** 
      2 LUT             138 ****               0 ****  **** 
