@<TRIPOS>MOLECULE
Cpptraj generated mol2 file.
  235   246     2     0     0
SMALL
USER_CHARGES


@<TRIPOS>ATOM
      1 CAA        80.4895   57.9933   34.1304 a2         1 CLA     -0.055900
      2 CAB        80.0911   62.1365   42.8449 c8         1 CLA     -0.148500
      3 CAC        73.1116   57.8290   42.2133 a2         1 CLA     -0.012600
      4 CAD        76.0586   55.3394   35.0627 ck         1 CLA      0.398800
      5 NA         79.2287   58.3551   37.3328 ns         1 CLA     -0.225500
      6 CBA        81.6794   57.5839   33.2531 a2         1 CLA     -0.135000
      7 CBB        81.2927   62.6107   43.3784 c0         1 CLA     -0.395200
      8 CBC        73.3152   56.2649   42.1202 a3         1 CLA     -0.037700
      9 CBD        77.6228   55.7762   34.7869 a1         1 CLA     -0.053900
     10 NB         79.0247   59.8830   39.9909 nm         1 CLA     -0.295700
     11 OBD        75.4206   54.6421   34.2364 o2         1 CLA     -0.494600
     12 CGA        81.8714   56.1120   32.9477 c4         1 CLA      0.827000
     13 CGD        78.5203   54.5455   34.8322 c4         1 CLA      0.655300
     14 ND         76.3817   57.5041   37.8675 nm         1 CLA     -0.291600
     15 CED        79.3974   52.9255   36.4530 a3         1 CLA      0.005400
     16 CHA        77.9294   56.8179   35.9386 cs         1 CLA     -0.123800
     17 CHB        81.0569   59.4928   38.5235 aa         1 CLA     -0.291900
     18 CHC        77.5990   60.3210   42.0133 aa         1 CLA     -0.090400
     19 CHD        74.4237   57.5191   39.3253 aa         1 CLA     -0.052000
     20 CMA        82.2410   56.6790   37.3815 a3         1 CLA     -0.230700
     21 CMB        82.2724   61.7514   40.3651 a3         1 CLA     -0.180800
     22 CMC        74.9766   59.7265   43.9302 a3         1 CLA     -0.134000
     23 CMD        73.3223   55.5024   37.2238 a3         1 CLA     -0.141100
     24 C1         82.9197   54.1132   33.6284 a2         1 CLA      0.023000
     25 C1A        79.0948   57.5515   36.2289 ac         1 CLA     -0.015100
     26 C1B        80.4050   60.0826   39.6775 cr         1 CLA      0.054700
     27 C1C        76.4081   59.4968   41.6852 cn         1 CLA     -0.005600
     28 C1D        75.1284   57.0644   38.1963 ap         1 CLA     -0.047300
     29 O1A        81.6414   55.5231   31.8909 o2         1 CLA     -0.610800
     30 O1D        79.1953   54.1351   33.9511 o2         1 CLA     -0.558200
     31 C2         83.6293   53.4286   34.7916 c8         1 CLA     -0.325100
     32 C2A        80.4431   57.3313   35.5282 a1         1 CLA      0.098600
     33 C2B        80.9645   61.0942   40.5783 cb         1 CLA      0.088500
     34 C2C        75.2389   59.2401   42.5272 cb         1 CLA      0.053700
     35 C2D        74.6683   56.1147   37.2132 cb         1 CLA      0.058900
     36 O2A        82.4253   55.4647   34.0079 o1         1 CLA     -0.437200
     37 O2D        78.5449   54.0661   36.1082 o1         1 CLA     -0.357600
     38 C3         84.7432   52.7055   34.6905 c5         1 CLA      0.031200
     39 C3A        81.4834   57.8550   36.6408 a1         1 CLA      0.166800
     40 C3B        79.9760   61.2720   41.5804 cb         1 CLA      0.035000
     41 C3C        74.3536   58.4675   41.7440 cb         1 CLA     -0.089900
     42 C3D        75.6895   55.9284   36.2932 cb         1 CLA     -0.035900
     43 C4         84.7519   51.2376   34.4037 a3         1 CLA     -0.053300
     44 C4A        80.5507   58.6939   37.5114 ac         1 CLA      0.001800
     45 C4B        78.7752   60.4910   41.2600 cn         1 CLA     -0.020900
     46 C4C        74.9772   58.2534   40.4357 cr         1 CLA     -0.044400
     47 C4D        76.7399   56.8468   36.6942 c6         1 CLA     -0.046000
     48 C5         86.0576   53.4131   34.8660 a2         1 CLA     -0.070400
     49 C6         86.3902   54.0706   36.2642 a2         1 CLA      0.043900
     50 C7         87.7187   54.7385   36.4249 a2         1 CLA     -0.150000
     51 C8         87.9572   55.5545   37.7198 a1         1 CLA      0.064200
     52 C9         87.0860   56.8908   37.6660 a3         1 CLA     -0.259300
     53 C10        89.4595   55.8607   37.9953 a2         1 CLA     -0.071900
     54 C11        89.8405   56.2988   39.3987 a2         1 CLA      0.014500
     55 C12        89.5990   55.1758   40.3901 a2         1 CLA     -0.112100
     56 C13        90.1456   55.5831   41.8292 a1         1 CLA      0.089200
     57 C14        90.0573   54.3310   42.7772 a3         1 CLA     -0.239100
     58 C15        89.6660   56.9256   42.4186 a2         1 CLA     -0.102200
     59 C16        88.1830   57.0870   42.6933 a2         1 CLA      0.023900
     60 C17        87.8853   58.5272   43.2350 a2         1 CLA     -0.105700
     61 C18        86.4054   58.7870   43.6754 a1         1 CLA      0.206800
     62 C19        85.9197   57.9723   44.8764 a3         1 CLA     -0.280100
     63 C20        85.9439   60.2835   43.8962 a3         1 CLA     -0.280100
     64 NC         76.2646   58.8692   40.4709 nx         1 CLA     -0.309200
     65 MG         77.6196   58.8827   38.8078 mg         1 CLA      0.895000
     66 HMD3       72.5568   56.2720   37.1060 dc         1 CLA      0.064300
     67 HMD2       73.2039   54.7320   36.4815 dc         1 CLA      0.064300
     68 HMD1       73.1449   55.1613   38.2040 dc         1 CLA      0.064300
     69 HMC3       74.5865   58.8795   44.5564 dc         1 CLA      0.052100
     70 HMC2       75.9465   60.1893   44.3404 dc         1 CLA      0.052100
     71 HMC1       74.1954   60.5282   43.9966 dc         1 CLA      0.052100
     72 HMB3       83.0041   61.3058   40.9576 dc         1 CLA      0.063600
     73 HMB2       82.5374   61.5185   39.3502 dc         1 CLA      0.063600
     74 HMB1       82.3562   62.7922   40.5258 dc         1 CLA      0.063600
     75 HMA3       81.4999   56.0570   37.9337 dc         1 CLA      0.058300
     76 HMA2       82.8025   56.2009   36.5425 dc         1 CLA      0.058300
     77 HMA1       83.0450   57.0800   38.0138 dc         1 CLA      0.058300
     78 HED3       80.3989   53.1183   36.2620 dc         1 CLA      0.079300
     79 HED2       79.2745   52.6264   37.5208 dc         1 CLA      0.079300
     80 HED1       79.0909   52.1060   35.9147 dc         1 CLA      0.079300
     81 HBC3       74.2135   55.9991   42.6852 dc         1 CLA      0.016300
     82 HBC2       72.4808   55.7789   42.6670 dc         1 CLA      0.016300
     83 HBC1       73.3283   55.8998   41.0884 dc         1 CLA      0.016300
     84 HBB2       81.4164   63.1570   44.3684 da         1 CLA      0.183000
     85 HBB1       82.2450   62.3399   42.8913 da         1 CLA      0.183000
     86 HBA2       81.7718   58.0671   32.3158 dc         1 CLA      0.029400
     87 HBA1       82.5607   57.9495   33.8341 dc         1 CLA      0.029400
     88 HAC2       72.8406   58.1260   43.2222 dc         1 CLA      0.029300
     89 HAC1       72.3450   57.9795   41.4459 dc         1 CLA      0.029300
     90 HAA2       79.6221   57.6308   33.5847 dc         1 CLA      0.028700
     91 HAA1       80.3940   59.1323   34.1861 dc         1 CLA      0.028700
     92 H203       86.5494   60.6167   44.7415 dc         1 CLA      0.065600
     93 H202       86.1374   60.9677   43.0608 dc         1 CLA      0.065600
     94 H201       84.8518   60.3347   44.1875 dc         1 CLA      0.065600
     95 H193       86.0121   56.8978   44.6750 dc         1 CLA      0.065600
     96 H192       86.4869   58.2896   45.7188 dc         1 CLA      0.065600
     97 H191       84.8728   58.2286   45.2062 dc         1 CLA      0.065600
     98 H172       88.3769   58.6551   44.1586 dc         1 CLA      0.027600
     99 H171       88.1302   59.2843   42.5619 dc         1 CLA      0.027600
    100 H162       87.7093   56.8902   41.7500 dc         1 CLA      0.002900
    101 H161       87.7093   56.3312   43.4117 dc         1 CLA      0.002900
    102 H152       90.2785   57.1206   43.3243 dc         1 CLA      0.029100
    103 H151       89.8170   57.7747   41.7544 dc         1 CLA      0.029100
    104 H143       90.3937   53.3671   42.4149 dc         1 CLA      0.063600
    105 H142       90.6038   54.5808   43.7184 dc         1 CLA      0.063600
    106 H141       89.0276   54.2472   42.9084 dc         1 CLA      0.063600
    107 H122       88.5543   55.1449   40.4136 dc         1 CLA      0.032500
    108 H121       89.9342   54.1475   40.1128 dc         1 CLA      0.032500
    109 H112       90.8852   56.5940   39.4383 dc         1 CLA      0.006600
    110 H111       89.2708   57.1739   39.6387 dc         1 CLA      0.006600
    111 H102       90.0930   54.9408   37.8394 dc         1 CLA      0.024100
    112 H101       89.9202   56.5294   37.2528 dc         1 CLA      0.024100
    113 HHD        73.4732   57.0224   39.3928 da         1 CLA      0.174300
    114 HHC        77.6256   60.8361   42.9595 da         1 CLA      0.136800
    115 HHB        82.1875   59.5697   38.5361 da         1 CLA      0.138300
    116 HBD        77.8472   56.1348   33.8150 dc         1 CLA      0.107700
    117 HAB        79.1692   62.3633   43.4339 da         1 CLA      0.155200
    118 H93        87.3374   57.5067   36.8069 dc         1 CLA      0.069500
    119 H92        86.0779   56.5999   37.6275 dc         1 CLA      0.069500
    120 H91        87.2674   57.5424   38.5457 dc         1 CLA      0.069500
    121 H8         87.5401   54.9675   38.5558 dc         1 CLA      0.029300
    122 H72        88.3780   53.9370   36.5495 dc         1 CLA      0.044400
    123 H71        87.8857   55.2080   35.4088 dc         1 CLA      0.044400
    124 H62        85.5797   54.7573   36.5181 dc         1 CLA      0.015600
    125 H61        86.3754   53.3772   36.9778 dc         1 CLA      0.015600
    126 H52        86.8987   52.7252   34.6644 dc         1 CLA      0.033200
    127 H51        85.9280   54.2074   34.1257 dc         1 CLA      0.033200
    128 H43        83.8028   50.9551   33.9106 dc         1 CLA      0.037000
    129 H42        85.5407   51.0855   33.6354 dc         1 CLA      0.037000
    130 H41        84.9019   50.5925   35.2638 dc         1 CLA      0.037000
    131 H3A        82.2139   58.5151   36.2298 dc         1 CLA      0.041100
    132 H2A        80.5298   56.3117   35.3297 dc         1 CLA      0.083100
    133 H2         83.1905   53.5661   35.7605 da         1 CLA      0.180900
    134 H18        85.6735   58.5757   42.8691 dc         1 CLA     -0.003900
    135 H13        91.1289   55.9533   41.6213 dc         1 CLA      0.019700
    136 H12        82.0569   53.4953   33.2676 dc         1 CLA      0.120400
    137 H11        83.6834   54.2127   32.8315 dc         1 CLA      0.120400
    138 C1         70.1331   61.7632   49.5808 Z1         2 LUT      0.509236
    139 C2         68.6694   61.7106   50.0574 Z2         2 LUT     -0.434695
    140 C3         68.0149   63.0366   50.3487 Z3         2 LUT      0.437453
    141 O3         68.3498   63.5523   51.6280 S1         2 LUT     -0.547129
    142 C4         68.3096   64.1100   49.2934 Z4         2 LUT     -0.468603
    143 C5         69.0792   63.6793   48.1663 Z5         2 LUT      0.279246
    144 C6         69.9427   62.6194   48.2635 Z6         2 LUT     -0.305473
    145 C7         70.6813   62.1422   47.0547 Z7         2 LUT      0.069402
    146 C8         71.3901   62.8648   46.2084 Z8         2 LUT     -0.191631
    147 C9         71.8788   62.4011   44.9041 Z9         2 LUT      0.196698
    148 C10        72.8977   63.0772   44.3974 Y1         2 LUT     -0.208611
    149 C11        73.7067   62.9359   43.1854 Y2         2 LUT      0.030784
    150 C12        74.8732   63.6633   42.9508 Y3         2 LUT     -0.220316
    151 C13        75.8275   63.6551   41.8487 Y4         2 LUT      0.215937
    152 C14        77.0369   64.4630   41.9386 Y5         2 LUT     -0.185793
    153 C15        78.1335   64.5047   41.0271 Y6         2 LUT     -0.057835
    154 C16        70.6457   60.3112   49.3843 Y7         2 LUT     -0.405615
    155 C17        71.0065   62.4017   50.6642 Y7         2 LUT     -0.405615
    156 C18        68.7347   64.5829   46.9318 Y9         2 LUT     -0.369639
    157 C19        71.1787   61.1581   44.2352 W1         2 LUT     -0.333362
    158 C20        75.5177   62.7350   40.6882 W2         2 LUT     -0.323439
    159 C21        88.8073   65.3513   34.6066 Z1         2 LUT      0.406104
    160 C22        89.6284   64.5564   33.5509 Z2         2 LUT     -0.404965
    161 C23        89.9353   65.3806   32.3769 Z3         2 LUT      0.391255
    162 O23        90.6251   64.4947   31.4092 S1         2 LUT     -0.528210
    163 C24        88.8507   66.2761   31.9192 W6         2 LUT     -0.258361
    164 C25        87.6858   66.5444   32.5610 Z5         2 LUT      0.133546
    165 C26        87.4700   65.8830   33.9475 W8         2 LUT     -0.147008
    166 C27        86.7048   66.9035   34.7210 Z7         2 LUT      0.023843
    167 C28        85.6529   66.4824   35.5672 Z8         2 LUT     -0.216987
    168 C29        85.1649   67.0594   36.7895 Z9         2 LUT      0.206524
    169 C30        84.0710   66.4858   37.3737 Y1         2 LUT     -0.215556
    170 C31        83.4859   66.7092   38.7150 Y2         2 LUT      0.025142
    171 C32        82.3909   65.9338   39.1014 Y3         2 LUT     -0.212209
    172 C33        81.5175   66.1913   40.2349 Y4         2 LUT      0.240937
    173 C34        80.3334   65.4179   40.2965 Y5         2 LUT     -0.218862
    174 C35        79.2554   65.2984   41.1907 Y6         2 LUT     -0.023547
    175 C36        89.7763   66.4313   35.1605 Y7         2 LUT     -0.393485
    176 C37        88.4266   64.3874   35.7248 Y7         2 LUT     -0.393485
    177 C38        86.6373   67.5782   32.1126 Y9         2 LUT     -0.387526
    178 C39        85.9208   68.2984   37.3017 W1         2 LUT     -0.322618
    179 C40        81.7905   67.3443   41.2309 W2         2 LUT     -0.358472
    180 H403       81.5954   68.2933   40.8128 R7         2 LUT      0.097720
    181 H402       81.2163   67.2868   42.1816 R7         2 LUT      0.097720
    182 H401       82.8555   67.2914   41.4290 R7         2 LUT      0.097720
    183 H393       86.0236   69.0717   36.5566 R4         2 LUT      0.082505
    184 H392       85.5141   68.6707   38.1914 R4         2 LUT      0.082505
    185 H391       86.9974   68.1509   37.4753 R4         2 LUT      0.082505
    186 H383       86.7346   67.6044   30.9929 R1         2 LUT      0.104030
    187 H382       85.6049   67.2616   32.3591 R1         2 LUT      0.104030
    188 H381       86.9294   68.6460   32.3380 R1         2 LUT      0.104030
    189 H373       89.2515   64.2223   36.2895 T4         2 LUT      0.089537
    190 H372       87.7852   64.8631   36.5177 T4         2 LUT      0.089537
    191 H371       87.9904   63.5172   35.2271 T4         2 LUT      0.089537
    192 H363       89.2324   66.9070   35.9657 T4         2 LUT      0.089537
    193 H362       90.6448   65.9222   35.6044 T4         2 LUT      0.089537
    194 H361       89.9585   67.2598   34.4050 T4         2 LUT      0.089537
    195 H222       90.5492   64.1504   33.9784 U2         2 LUT      0.127376
    196 H221       89.0235   63.7077   33.2835 U2         2 LUT      0.127376
    197 H203       74.4775   62.7110   40.4119 R7         2 LUT      0.087068
    198 H202       76.1428   62.9412   39.7595 R7         2 LUT      0.087068
    199 H201       75.7164   61.7291   40.9873 R7         2 LUT      0.087068
    200 H193       70.1005   61.2549   43.9860 R4         2 LUT      0.089716
    201 H192       71.5206   60.9278   43.2320 R4         2 LUT      0.089716
    202 H191       71.2903   60.2879   44.8750 R4         2 LUT      0.089716
    203 H183       69.3403   65.4696   46.9471 R1         2 LUT      0.094572
    204 H182       69.0502   64.0943   46.0158 R1         2 LUT      0.094572
    205 H181       67.6603   64.7887   46.8954 R1         2 LUT      0.094572
    206 H173       70.7552   63.4405   50.7899 T4         2 LUT      0.093752
    207 H172       70.8326   61.9265   51.6176 T4         2 LUT      0.093752
    208 H171       72.0266   62.1641   50.4576 T4         2 LUT      0.093752
    209 H163       71.5842   60.3205   48.9214 T4         2 LUT      0.093752
    210 H162       70.8412   59.8624   50.3583 T4         2 LUT      0.093752
    211 H161       69.9210   59.7667   48.8241 T4         2 LUT      0.093752
    212 HO3        67.6605   63.4086   52.2800 Q1         2 LUT      0.300121
    213 H8         71.5706   63.9194   46.5248 U7         2 LUT      0.080784
    214 H7         70.4902   61.0642   46.8321 U6         2 LUT      0.042190
    215 H42        67.3675   64.3986   48.9116 U5         2 LUT      0.145166
    216 H41        68.7270   65.0132   49.7157 U5         2 LUT      0.145166
    217 H35        79.3008   65.7624   42.1902 T3         2 LUT      0.077919
    218 H34        80.2176   64.8214   39.4494 T2         2 LUT      0.073626
    219 H32        82.0407   65.1449   38.4361 T1         2 LUT      0.092510
    220 H31        83.8544   67.5776   39.2053 U9         2 LUT      0.070048
    221 H30        83.7389   65.6758   36.7733 U8         2 LUT      0.085442
    222 H3         66.8984   62.8855   50.2340 U3         2 LUT     -0.031596
    223 H28        85.2600   65.5619   35.1925 U7         2 LUT      0.084728
    224 H27        87.2136   67.8680   34.9169 U6         2 LUT      0.087291
    225 H26        86.8378   64.9888   33.7630 Q6         2 LUT      0.075325
    226 H24        89.1184   66.8614   31.0672 Q5         2 LUT      0.094482
    227 H23        90.7824   66.0297   32.7675 U3         2 LUT     -0.024869
    228 H22        67.9806   61.2149   49.3449 U2         2 LUT      0.127376
    229 H21        68.6283   61.1767   51.0187 U2         2 LUT      0.127376
    230 H15        78.0772   63.7820   40.1748 T3         2 LUT      0.093200
    231 H14        77.1449   64.9831   42.8335 T2         2 LUT      0.068865
    232 H12        75.0097   64.3530   43.8188 T1         2 LUT      0.095507
    233 H11        73.4455   62.1653   42.4587 U9         2 LUT      0.068930
    234 H10        73.1965   63.9712   44.9720 U8         2 LUT      0.083911
    235 H1         90.2692   64.5449   30.5199 Q1         2 LUT      0.297311
@<TRIPOS>BOND
    1     6     1 1
    2     7     2 1
    3     8     3 1
    4     9     4 1
    5    11     4 1
    6    12     6 1
    7    13     9 1
    8    16     9 1
    9    25     5 1
   10    25    16 1
   11    26    10 1
   12    26    17 1
   13    27    18 1
   14    28    14 1
   15    28    19 1
   16    29    12 1
   17    30    13 1
   18    31    24 1
   19    32     1 1
   20    32    25 1
   21    33    21 1
   22    33    26 1
   23    34    22 1
   24    34    27 1
   25    35    23 1
   26    35    28 1
   27    36    12 1
   28    36    24 1
   29    37    13 1
   30    37    15 1
   31    38    31 1
   32    39    20 1
   33    39    32 1
   34    40     2 1
   35    40    33 1
   36    41     3 1
   37    41    34 1
   38    42     4 1
   39    42    35 1
   40    43    38 1
   41    44     5 1
   42    44    17 1
   43    44    39 1
   44    45    10 1
   45    45    18 1
   46    45    40 1
   47    46    19 1
   48    46    41 1
   49    47    14 1
   50    47    16 1
   51    47    42 1
   52    48    38 1
   53    49    48 1
   54    50    49 1
   55    51    50 1
   56    52    51 1
   57    53    51 1
   58    54    53 1
   59    55    54 1
   60    56    55 1
   61    57    56 1
   62    58    56 1
   63    59    58 1
   64    60    59 1
   65    61    60 1
   66    62    61 1
   67    63    61 1
   68    64    27 1
   69    64    46 1
   70    65     5 1
   71    65    10 1
   72    65    64 1
   73    65    14 1
   74    66    23 1
   75    67    23 1
   76    68    23 1
   77    69    22 1
   78    70    22 1
   79    71    22 1
   80    72    21 1
   81    73    21 1
   82    74    21 1
   83    75    20 1
   84    76    20 1
   85    77    20 1
   86    78    15 1
   87    79    15 1
   88    80    15 1
   89    81     8 1
   90    82     8 1
   91    83     8 1
   92    84     7 1
   93    85     7 1
   94    86     6 1
   95    87     6 1
   96    88     3 1
   97    89     3 1
   98    90     1 1
   99    91     1 1
  100    92    63 1
  101    93    63 1
  102    94    63 1
  103    95    62 1
  104    96    62 1
  105    97    62 1
  106    98    60 1
  107    99    60 1
  108   100    59 1
  109   101    59 1
  110   102    58 1
  111   103    58 1
  112   104    57 1
  113   105    57 1
  114   106    57 1
  115   107    55 1
  116   108    55 1
  117   109    54 1
  118   110    54 1
  119   111    53 1
  120   112    53 1
  121   113    19 1
  122   114    18 1
  123   115    17 1
  124   116     9 1
  125   117     2 1
  126   118    52 1
  127   119    52 1
  128   120    52 1
  129   121    51 1
  130   122    50 1
  131   123    50 1
  132   124    49 1
  133   125    49 1
  134   126    48 1
  135   127    48 1
  136   128    43 1
  137   129    43 1
  138   130    43 1
  139   131    39 1
  140   132    32 1
  141   133    31 1
  142   134    61 1
  143   135    56 1
  144   136    24 1
  145   137    24 1
  146   139   138 1
  147   140   139 1
  148   141   140 1
  149   142   140 1
  150   143   142 1
  151   144   138 1
  152   144   143 1
  153   145   144 1
  154   146   145 1
  155   147   146 1
  156   148   147 1
  157   149   148 1
  158   150   149 1
  159   151   150 1
  160   152   151 1
  161   153   152 1
  162   154   138 1
  163   155   138 1
  164   156   143 1
  165   157   147 1
  166   158   151 1
  167   160   159 1
  168   161   160 1
  169   162   161 1
  170   163   161 1
  171   164   163 1
  172   165   159 1
  173   165   164 1
  174   166   165 1
  175   167   166 1
  176   168   167 1
  177   169   168 1
  178   170   169 1
  179   171   170 1
  180   172   171 1
  181   173   172 1
  182   174   153 1
  183   174   173 1
  184   175   159 1
  185   176   159 1
  186   177   164 1
  187   178   168 1
  188   179   172 1
  189   180   179 1
  190   181   179 1
  191   182   179 1
  192   183   178 1
  193   184   178 1
  194   185   178 1
  195   186   177 1
  196   187   177 1
  197   188   177 1
  198   189   176 1
  199   190   176 1
  200   191   176 1
  201   192   175 1
  202   193   175 1
  203   194   175 1
  204   195   160 1
  205   196   160 1
  206   197   158 1
  207   198   158 1
  208   199   158 1
  209   200   157 1
  210   201   157 1
  211   202   157 1
  212   203   156 1
  213   204   156 1
  214   205   156 1
  215   206   155 1
  216   207   155 1
  217   208   155 1
  218   209   154 1
  219   210   154 1
  220   211   154 1
  221   212   141 1
  222   213   146 1
  223   214   145 1
  224   215   142 1
  225   216   142 1
  226   217   174 1
  227   218   173 1
  228   219   171 1
  229   220   170 1
  230   221   169 1
  231   222   140 1
  232   223   167 1
  233   224   166 1
  234   225   165 1
  235   226   163 1
  236   227   161 1
  237   228   139 1
  238   229   139 1
  239   230   153 1
  240   231   152 1
  241   232   150 1
  242   233   149 1
  243   234   148 1
  244   235   162 1
  245   65    153 1
  246   65    174 1
@<TRIPOS>SUBSTRUCTURE
      1 CLA               1 ****               0 ****  **** 
      2 LUT             138 ****               0 ****  **** 
