@<TRIPOS>MOLECULE
Cpptraj generated mol2 file.
  235   246     2     0     0
SMALL
USER_CHARGES


@<TRIPOS>ATOM
      1 CAA        78.9629   57.3358   34.9748 a2         1 CLA     -0.055900
      2 CAB        77.6821   61.6256   43.5202 c8         1 CLA     -0.148500
      3 CAC        71.5835   56.7828   43.2146 a2         1 CLA     -0.012600
      4 CAD        74.9026   54.3708   36.0356 ck         1 CLA      0.398800
      5 NA         77.6173   57.7202   38.2735 ns         1 CLA     -0.225500
      6 CBA        80.2877   57.2953   34.2085 a2         1 CLA     -0.135000
      7 CBB        78.5651   61.9574   44.4380 c0         1 CLA     -0.395200
      8 CBC        71.8154   55.3565   43.6915 a3         1 CLA     -0.037700
      9 CBD        76.3970   54.9409   35.8175 a1         1 CLA     -0.053900
     10 NB         77.2833   59.2229   40.7586 nm         1 CLA     -0.295700
     11 OBD        74.3998   53.6010   35.2129 o2         1 CLA     -0.494600
     12 CGA        80.8255   55.8848   33.9595 c4         1 CLA      0.827000
     13 CGD        77.3078   53.6730   35.7319 c4         1 CLA      0.655300
     14 ND         74.9550   56.6794   38.6829 nm         1 CLA     -0.291600
     15 CED        77.8486   51.7522   37.0600 a3         1 CLA      0.005400
     16 CHA        76.5937   56.0188   36.9057 cs         1 CLA     -0.123800
     17 CHB        79.2731   59.1478   39.3806 aa         1 CLA     -0.291900
     18 CHC        75.7217   59.4910   42.7022 aa         1 CLA     -0.090400
     19 CHD        73.1776   56.1570   40.3821 aa         1 CLA     -0.052000
     20 CMA        81.0569   56.9559   38.3321 a3         1 CLA     -0.230700
     21 CMB        80.3329   61.3654   41.4399 a3         1 CLA     -0.180800
     22 CMC        73.5444   58.9251   44.7379 a3         1 CLA     -0.134000
     23 CMD        72.0992   54.1653   37.9911 a3         1 CLA     -0.141100
     24 C1         82.2042   54.2027   35.1025 a2         1 CLA      0.023000
     25 C1A        77.6759   56.8826   37.2145 ac         1 CLA     -0.015100
     26 C1B        78.5812   59.5627   40.5141 cr         1 CLA      0.054700
     27 C1C        74.7444   58.6195   42.4070 cn         1 CLA     -0.005600
     28 C1D        73.7837   55.9599   39.0732 ap         1 CLA     -0.047300
     29 O1A        80.6203   55.1736   32.9780 o2         1 CLA     -0.610800
     30 O1D        78.3861   53.6257   35.1447 o2         1 CLA     -0.558200
     31 C2         81.6952   53.6268   36.4192 c8         1 CLA     -0.325100
     32 C2A        79.0581   56.8688   36.5019 a1         1 CLA      0.098600
     33 C2B        79.0388   60.5684   41.4438 cb         1 CLA      0.088500
     34 C2C        73.6290   58.2880   43.3397 cb         1 CLA      0.053700
     35 C2D        73.3670   55.0299   38.0551 cb         1 CLA      0.058900
     36 O2A        81.6502   55.5584   35.0147 o1         1 CLA     -0.437200
     37 O2D        76.8716   52.7710   36.6732 o1         1 CLA     -0.357600
     38 C3         82.4427   52.8451   37.2744 c5         1 CLA      0.031200
     39 C3A        79.9555   57.7106   37.4759 a1         1 CLA      0.166800
     40 C3B        77.9308   60.7516   42.3665 cb         1 CLA      0.035000
     41 C3C        72.8609   57.3658   42.6679 cb         1 CLA     -0.089900
     42 C3D        74.4034   54.9891   37.2169 cb         1 CLA     -0.035900
     43 C4         82.3894   51.2886   37.1326 a3         1 CLA     -0.053300
     44 C4A        78.8433   58.3166   38.3725 ac         1 CLA      0.001800
     45 C4B        76.8581   59.8112   41.9421 cn         1 CLA     -0.020900
     46 C4C        73.5968   57.0697   41.4076 cr         1 CLA     -0.044400
     47 C4D        75.3755   55.9312   37.6105 c6         1 CLA     -0.046000
     48 C5         83.0520   53.4901   38.5092 a2         1 CLA     -0.070400
     49 C6         84.2860   54.3948   38.2302 a2         1 CLA      0.043900
     50 C7         84.7824   54.9703   39.5517 a2         1 CLA     -0.150000
     51 C8         85.6646   56.2710   39.5554 a1         1 CLA      0.064200
     52 C9         86.9885   56.1603   38.7329 a3         1 CLA     -0.259300
     53 C10        85.9234   56.7589   40.9824 a2         1 CLA     -0.071900
     54 C11        84.7165   57.4865   41.6924 a2         1 CLA      0.014500
     55 C12        85.0458   58.1148   43.0716 a2         1 CLA     -0.112100
     56 C13        85.2978   57.2085   44.3156 a1         1 CLA      0.089200
     57 C14        84.0580   56.3556   44.4739 a3         1 CLA     -0.239100
     58 C15        85.6549   58.0469   45.6086 a2         1 CLA     -0.102200
     59 C16        84.5736   59.0871   46.1138 a2         1 CLA      0.023900
     60 C17        84.9541   59.6195   47.4884 a2         1 CLA     -0.105700
     61 C18        84.1654   60.8328   48.0377 a1         1 CLA      0.206800
     62 C19        82.7109   60.3317   48.4127 a3         1 CLA     -0.280100
     63 C20        84.8442   61.5032   49.2485 a3         1 CLA     -0.280100
     64 NC         74.6431   57.9306   41.1888 nx         1 CLA     -0.309200
     65 MG         76.0805   57.9794   39.5948 mg         1 CLA      0.895000
     66 HMD3       71.3545   54.7673   37.4741 dc         1 CLA      0.064300
     67 HMD2       72.1783   53.1356   37.4708 dc         1 CLA      0.064300
     68 HMD1       71.7662   53.8391   39.0208 dc         1 CLA      0.064300
     69 HMC3       73.8338   59.9463   44.5594 dc         1 CLA      0.052100
     70 HMC2       72.5404   58.8380   45.1360 dc         1 CLA      0.052100
     71 HMC1       74.2990   58.4157   45.3628 dc         1 CLA      0.052100
     72 HMB3       80.2978   62.2118   42.2685 dc         1 CLA      0.063600
     73 HMB2       81.2214   60.7260   41.5652 dc         1 CLA      0.063600
     74 HMB1       80.3915   61.7895   40.4606 dc         1 CLA      0.063600
     75 HMA3       80.6832   56.7391   39.3249 dc         1 CLA      0.058300
     76 HMA2       81.4010   56.1186   37.7478 dc         1 CLA      0.058300
     77 HMA1       81.9164   57.6700   38.4409 dc         1 CLA      0.058300
     78 HED3       77.5582   51.1272   37.8607 dc         1 CLA      0.079300
     79 HED2       77.9688   51.2321   36.1595 dc         1 CLA      0.079300
     80 HED1       78.7770   52.3167   37.3961 dc         1 CLA      0.079300
     81 HBC3       70.7976   55.0442   44.0431 dc         1 CLA      0.016300
     82 HBC2       72.0420   54.7342   42.8391 dc         1 CLA      0.016300
     83 HBC1       72.4688   55.1473   44.5305 dc         1 CLA      0.016300
     84 HBB2       78.2302   62.6218   45.1788 da         1 CLA      0.183000
     85 HBB1       79.5672   61.5654   44.4358 da         1 CLA      0.183000
     86 HBA2       80.0329   57.9188   33.3362 dc         1 CLA      0.029400
     87 HBA1       81.0472   57.9029   34.7026 dc         1 CLA      0.029400
     88 HAC2       71.1360   57.3935   43.9386 dc         1 CLA      0.029300
     89 HAC1       70.8200   56.7130   42.4858 dc         1 CLA      0.029300
     90 HAA2       78.3036   56.7176   34.4553 dc         1 CLA      0.028700
     91 HAA1       78.6407   58.3446   34.8613 dc         1 CLA      0.028700
     92 H203       84.4813   62.4959   49.2297 dc         1 CLA      0.065600
     93 H202       84.5337   61.0670   50.1875 dc         1 CLA      0.065600
     94 H201       85.9479   61.4836   49.1771 dc         1 CLA      0.065600
     95 H193       82.7275   59.6403   49.2634 dc         1 CLA      0.065600
     96 H192       82.2101   61.2647   48.4961 dc         1 CLA      0.065600
     97 H191       82.2193   59.8128   47.5781 dc         1 CLA      0.065600
     98 H172       85.0885   58.7212   48.0868 dc         1 CLA      0.027600
     99 H171       85.8991   60.0538   47.3944 dc         1 CLA      0.027600
    100 H162       84.5115   59.8866   45.3968 dc         1 CLA      0.002900
    101 H161       83.5454   58.6351   46.1672 dc         1 CLA      0.002900
    102 H152       85.6208   57.2959   46.3930 dc         1 CLA      0.029100
    103 H151       86.6402   58.5181   45.5519 dc         1 CLA      0.029100
    104 H143       83.2539   56.9557   44.7327 dc         1 CLA      0.063600
    105 H142       83.9210   55.6744   43.6020 dc         1 CLA      0.063600
    106 H141       84.2489   55.7619   45.3593 dc         1 CLA      0.063600
    107 H122       86.0229   58.6994   42.8933 dc         1 CLA      0.032500
    108 H121       84.2084   58.8307   43.1663 dc         1 CLA      0.032500
    109 H112       84.3242   58.2641   41.0564 dc         1 CLA      0.006600
    110 H111       83.8576   56.7182   41.7891 dc         1 CLA      0.006600
    111 H102       86.3772   55.9237   41.5204 dc         1 CLA      0.024100
    112 H101       86.6949   57.6291   40.8347 dc         1 CLA      0.024100
    113 HHD        72.2210   55.5713   40.5396 da         1 CLA      0.174300
    114 HHC        75.6819   59.9855   43.6246 da         1 CLA      0.136800
    115 HHB        80.3167   59.4914   39.3367 da         1 CLA      0.138300
    116 HBD        76.4227   55.5296   34.8731 dc         1 CLA      0.107700
    117 HAB        76.7206   62.1344   43.6168 da         1 CLA      0.155200
    118 H93        87.7806   55.5951   39.2315 dc         1 CLA      0.069500
    119 H92        86.8407   55.6643   37.7453 dc         1 CLA      0.069500
    120 H91        87.3513   57.0844   38.4438 dc         1 CLA      0.069500
    121 H8         84.9807   57.0157   39.0426 dc         1 CLA      0.029300
    122 H72        83.9556   55.2947   40.2682 dc         1 CLA      0.044400
    123 H71        85.3374   54.2124   40.0851 dc         1 CLA      0.044400
    124 H62        85.0804   53.9356   37.6534 dc         1 CLA      0.015600
    125 H61        83.9056   55.0993   37.5435 dc         1 CLA      0.015600
    126 H52        82.2892   54.0703   39.0142 dc         1 CLA      0.033200
    127 H51        83.4218   52.7103   39.2210 dc         1 CLA      0.033200
    128 H43        83.4340   50.9884   37.0798 dc         1 CLA      0.037000
    129 H42        81.8438   50.8217   37.9814 dc         1 CLA      0.037000
    130 H41        82.0103   51.0205   36.1815 dc         1 CLA      0.037000
    131 H3A        80.4336   58.4729   36.8204 dc         1 CLA      0.041100
    132 H2A        79.3851   55.7707   36.4988 dc         1 CLA      0.083100
    133 H2         80.5956   53.8034   36.6651 da         1 CLA      0.180900
    134 H18        84.0405   61.5292   47.1943 dc         1 CLA     -0.003900
    135 H13        86.1185   56.5903   43.9988 dc         1 CLA      0.019700
    136 H12        81.9646   53.5352   34.2481 dc         1 CLA      0.120400
    137 H11        83.2756   54.2908   35.2742 dc         1 CLA      0.120400
    138 C1         68.4904   60.8662   50.3366 Z1         2 LUT      0.509236
    139 C2         67.1837   60.6061   51.1573 Z2         2 LUT     -0.434695
    140 C3         66.2048   61.7736   51.3291 Z3         2 LUT      0.437453
    141 O3         66.0421   62.0775   52.6930 S1         2 LUT     -0.547129
    142 C4         66.4765   63.0382   50.5187 Z4         2 LUT     -0.468603
    143 C5         67.0470   62.6052   49.2097 Z5         2 LUT      0.279246
    144 C6         68.0836   61.6924   49.0885 Z6         2 LUT     -0.305473
    145 C7         68.5606   61.1526   47.8345 Z7         2 LUT      0.069402
    146 C8         69.7373   61.4481   47.1290 Z8         2 LUT     -0.191631
    147 C9         70.0689   61.0560   45.7175 Z9         2 LUT      0.196698
    148 C10        71.1310   61.6333   45.1450 Y1         2 LUT     -0.208611
    149 C11        71.7010   61.5661   43.8410 Y2         2 LUT      0.030784
    150 C12        72.7783   62.3818   43.5722 Y3         2 LUT     -0.220316
    151 C13        73.6802   62.5505   42.3633 Y4         2 LUT      0.215937
    152 C14        74.8496   63.3491   42.2768 Y5         2 LUT     -0.185793
    153 C15        75.9392   63.5348   41.3337 Y6         2 LUT     -0.057835
    154 C16        69.0834   59.4500   49.9960 Y7         2 LUT     -0.405615
    155 C17        69.4810   61.6186   51.2761 Y7         2 LUT     -0.405615
    156 C18        66.4507   63.3682   48.0590 Y9         2 LUT     -0.369639
    157 C19        69.3154   60.0139   44.9391 W1         2 LUT     -0.333362
    158 C20        73.4141   61.5561   41.1967 W2         2 LUT     -0.323439
    159 C21        87.4176   64.5323   35.5172 Z1         2 LUT      0.406104
    160 C22        88.1706   63.7848   34.3113 Z2         2 LUT     -0.404965
    161 C23        88.4110   64.7349   33.1161 Z3         2 LUT      0.391255
    162 O23        88.7445   63.8433   32.0524 S1         2 LUT     -0.528210
    163 C24        87.1704   65.5401   32.8001 W6         2 LUT     -0.258361
    164 C25        86.0945   65.7238   33.5979 Z5         2 LUT      0.133546
    165 C26        86.0661   65.0347   35.0121 W8         2 LUT     -0.147008
    166 C27        85.2390   65.7464   36.0402 Z7         2 LUT      0.023843
    167 C28        84.1711   65.2518   36.6862 Z8         2 LUT     -0.216987
    168 C29        83.5401   65.6642   37.9159 Z9         2 LUT      0.206524
    169 C30        82.2669   65.1724   38.2642 Y1         2 LUT     -0.215556
    170 C31        81.4548   65.4711   39.4042 Y2         2 LUT      0.025142
    171 C32        80.3434   64.6912   39.6956 Y3         2 LUT     -0.212209
    172 C33        79.4499   64.8926   40.7772 Y4         2 LUT      0.240937
    173 C34        78.2993   64.1842   40.7484 Y5         2 LUT     -0.218862
    174 C35        77.1664   64.1639   41.6177 Y6         2 LUT     -0.023547
    175 C36        88.2856   65.7055   36.0939 Y7         2 LUT     -0.393485
    176 C37        87.0743   63.5173   36.5395 Y7         2 LUT     -0.393485
    177 C38        84.8471   66.4879   33.1522 Y9         2 LUT     -0.387526
    178 C39        84.2444   66.6902   38.7918 W1         2 LUT     -0.322618
    179 C40        79.7682   65.8297   41.8974 W2         2 LUT     -0.358472
    180 H403       80.8135   65.6431   42.0692 R7         2 LUT      0.097720
    181 H402       79.5794   66.8716   41.7069 R7         2 LUT      0.097720
    182 H401       79.1367   65.6139   42.7441 R7         2 LUT      0.097720
    183 H393       85.3225   66.4987   38.8358 R4         2 LUT      0.082505
    184 H392       84.2303   67.6689   38.3523 R4         2 LUT      0.082505
    185 H391       83.9153   66.7538   39.7916 R4         2 LUT      0.082505
    186 H383       84.4857   67.1433   33.9140 R1         2 LUT      0.104030
    187 H382       84.9624   67.0239   32.1982 R1         2 LUT      0.104030
    188 H381       84.0384   65.8016   33.0431 R1         2 LUT      0.104030
    189 H373       86.3766   63.7672   37.3441 T4         2 LUT      0.089537
    190 H372       86.5808   62.5904   36.0885 T4         2 LUT      0.089537
    191 H371       88.0055   63.1317   37.0007 T4         2 LUT      0.089537
    192 H363       89.2971   65.3556   36.1740 T4         2 LUT      0.089537
    193 H362       88.3191   66.6590   35.5654 T4         2 LUT      0.089537
    194 H361       88.0498   65.9778   37.0915 T4         2 LUT      0.089537
    195 H222       89.1655   63.5284   34.6228 U2         2 LUT      0.127376
    196 H221       87.4875   62.9332   33.9676 U2         2 LUT      0.127376
    197 H203       72.8417   60.7062   41.5205 R7         2 LUT      0.087068
    198 H202       72.9331   62.1285   40.3880 R7         2 LUT      0.087068
    199 H201       74.3252   61.1230   40.8903 R7         2 LUT      0.087068
    200 H193       70.0235   59.2540   44.6590 R4         2 LUT      0.089716
    201 H192       68.5906   59.5816   45.5645 R4         2 LUT      0.089716
    202 H191       68.7836   60.3547   44.0018 R4         2 LUT      0.089716
    203 H183       66.7288   62.9616   47.0791 R1         2 LUT      0.094572
    204 H182       65.3699   63.3441   48.0079 R1         2 LUT      0.094572
    205 H181       66.8343   64.4327   48.1151 R1         2 LUT      0.094572
    206 H173       69.0640   62.5136   51.7828 T4         2 LUT      0.093752
    207 H172       69.8786   60.9713   51.9865 T4         2 LUT      0.093752
    208 H171       70.2872   61.9947   50.6682 T4         2 LUT      0.093752
    209 H163       68.2534   58.9358   49.4809 T4         2 LUT      0.093752
    210 H162       69.9303   59.5160   49.3460 T4         2 LUT      0.093752
    211 H161       69.4481   58.9523   50.9246 T4         2 LUT      0.093752
    212 HO3        66.8736   62.2512   53.1362 Q1         2 LUT      0.300121
    213 H8         70.3477   62.3302   47.5409 U7         2 LUT      0.080784
    214 H7         67.8387   60.6788   47.2603 U6         2 LUT      0.042190
    215 H42        65.5461   63.5768   50.4122 U5         2 LUT      0.145166
    216 H41        67.1358   63.7697   51.0065 U5         2 LUT      0.145166
    217 H35        77.2549   64.5360   42.6665 T3         2 LUT      0.077919
    218 H34        78.1319   63.5954   39.7572 T2         2 LUT      0.073626
    219 H32        80.2005   63.9228   38.9838 T1         2 LUT      0.092510
    220 H31        81.7623   66.2539   40.1134 U9         2 LUT      0.070048
    221 H30        81.8741   64.3619   37.5684 U8         2 LUT      0.085442
    222 H3         65.1979   61.4742   51.1444 U3         2 LUT     -0.031596
    223 H28        83.9355   64.2481   36.3494 U7         2 LUT      0.084728
    224 H27        85.7554   66.6612   36.3150 U6         2 LUT      0.087291
    225 H26        85.4558   64.2010   34.6898 Q6         2 LUT      0.075325
    226 H24        87.2290   65.9504   31.8317 Q5         2 LUT      0.094482
    227 H23        89.2540   65.2489   33.4583 U3         2 LUT     -0.024869
    228 H22        66.5516   59.7650   50.6534 U2         2 LUT      0.127376
    229 H21        67.4795   60.1142   52.0919 U2         2 LUT      0.127376
    230 H15        75.7668   63.0523   40.4018 T3         2 LUT      0.093200
    231 H14        75.0570   63.9655   43.1838 T2         2 LUT      0.068865
    232 H12        73.1790   63.0126   44.4058 T1         2 LUT      0.095507
    233 H11        71.2288   60.8225   43.1311 U9         2 LUT      0.068930
    234 H10        71.5588   62.3032   45.9015 U8         2 LUT      0.083911
    235 H1         89.0590   64.2023   31.2259 Q1         2 LUT      0.297311
@<TRIPOS>BOND
    1     6     1 1
    2     7     2 1
    3     8     3 1
    4     9     4 1
    5    11     4 1
    6    12     6 1
    7    13     9 1
    8    16     9 1
    9    25     5 1
   10    25    16 1
   11    26    10 1
   12    26    17 1
   13    27    18 1
   14    28    14 1
   15    28    19 1
   16    29    12 1
   17    30    13 1
   18    31    24 1
   19    32     1 1
   20    32    25 1
   21    33    21 1
   22    33    26 1
   23    34    22 1
   24    34    27 1
   25    35    23 1
   26    35    28 1
   27    36    12 1
   28    36    24 1
   29    37    13 1
   30    37    15 1
   31    38    31 1
   32    39    20 1
   33    39    32 1
   34    40     2 1
   35    40    33 1
   36    41     3 1
   37    41    34 1
   38    42     4 1
   39    42    35 1
   40    43    38 1
   41    44     5 1
   42    44    17 1
   43    44    39 1
   44    45    10 1
   45    45    18 1
   46    45    40 1
   47    46    19 1
   48    46    41 1
   49    47    14 1
   50    47    16 1
   51    47    42 1
   52    48    38 1
   53    49    48 1
   54    50    49 1
   55    51    50 1
   56    52    51 1
   57    53    51 1
   58    54    53 1
   59    55    54 1
   60    56    55 1
   61    57    56 1
   62    58    56 1
   63    59    58 1
   64    60    59 1
   65    61    60 1
   66    62    61 1
   67    63    61 1
   68    64    27 1
   69    64    46 1
   70    65     5 1
   71    65    10 1
   72    65    64 1
   73    65    14 1
   74    66    23 1
   75    67    23 1
   76    68    23 1
   77    69    22 1
   78    70    22 1
   79    71    22 1
   80    72    21 1
   81    73    21 1
   82    74    21 1
   83    75    20 1
   84    76    20 1
   85    77    20 1
   86    78    15 1
   87    79    15 1
   88    80    15 1
   89    81     8 1
   90    82     8 1
   91    83     8 1
   92    84     7 1
   93    85     7 1
   94    86     6 1
   95    87     6 1
   96    88     3 1
   97    89     3 1
   98    90     1 1
   99    91     1 1
  100    92    63 1
  101    93    63 1
  102    94    63 1
  103    95    62 1
  104    96    62 1
  105    97    62 1
  106    98    60 1
  107    99    60 1
  108   100    59 1
  109   101    59 1
  110   102    58 1
  111   103    58 1
  112   104    57 1
  113   105    57 1
  114   106    57 1
  115   107    55 1
  116   108    55 1
  117   109    54 1
  118   110    54 1
  119   111    53 1
  120   112    53 1
  121   113    19 1
  122   114    18 1
  123   115    17 1
  124   116     9 1
  125   117     2 1
  126   118    52 1
  127   119    52 1
  128   120    52 1
  129   121    51 1
  130   122    50 1
  131   123    50 1
  132   124    49 1
  133   125    49 1
  134   126    48 1
  135   127    48 1
  136   128    43 1
  137   129    43 1
  138   130    43 1
  139   131    39 1
  140   132    32 1
  141   133    31 1
  142   134    61 1
  143   135    56 1
  144   136    24 1
  145   137    24 1
  146   139   138 1
  147   140   139 1
  148   141   140 1
  149   142   140 1
  150   143   142 1
  151   144   138 1
  152   144   143 1
  153   145   144 1
  154   146   145 1
  155   147   146 1
  156   148   147 1
  157   149   148 1
  158   150   149 1
  159   151   150 1
  160   152   151 1
  161   153   152 1
  162   154   138 1
  163   155   138 1
  164   156   143 1
  165   157   147 1
  166   158   151 1
  167   160   159 1
  168   161   160 1
  169   162   161 1
  170   163   161 1
  171   164   163 1
  172   165   159 1
  173   165   164 1
  174   166   165 1
  175   167   166 1
  176   168   167 1
  177   169   168 1
  178   170   169 1
  179   171   170 1
  180   172   171 1
  181   173   172 1
  182   174   153 1
  183   174   173 1
  184   175   159 1
  185   176   159 1
  186   177   164 1
  187   178   168 1
  188   179   172 1
  189   180   179 1
  190   181   179 1
  191   182   179 1
  192   183   178 1
  193   184   178 1
  194   185   178 1
  195   186   177 1
  196   187   177 1
  197   188   177 1
  198   189   176 1
  199   190   176 1
  200   191   176 1
  201   192   175 1
  202   193   175 1
  203   194   175 1
  204   195   160 1
  205   196   160 1
  206   197   158 1
  207   198   158 1
  208   199   158 1
  209   200   157 1
  210   201   157 1
  211   202   157 1
  212   203   156 1
  213   204   156 1
  214   205   156 1
  215   206   155 1
  216   207   155 1
  217   208   155 1
  218   209   154 1
  219   210   154 1
  220   211   154 1
  221   212   141 1
  222   213   146 1
  223   214   145 1
  224   215   142 1
  225   216   142 1
  226   217   174 1
  227   218   173 1
  228   219   171 1
  229   220   170 1
  230   221   169 1
  231   222   140 1
  232   223   167 1
  233   224   166 1
  234   225   165 1
  235   226   163 1
  236   227   161 1
  237   228   139 1
  238   229   139 1
  239   230   153 1
  240   231   152 1
  241   232   150 1
  242   233   149 1
  243   234   148 1
  244   235   162 1
  245   65    153 1
  246   65    174 1
@<TRIPOS>SUBSTRUCTURE
      1 CLA               1 ****               0 ****  **** 
      2 LUT             138 ****               0 ****  **** 
