@<TRIPOS>MOLECULE
Cpptraj generated mol2 file.
  235   246     2     0     0
SMALL
USER_CHARGES


@<TRIPOS>ATOM
      1 CAA        77.8888   57.8423   33.2816 a2         1 CLA     -0.055900
      2 CAB        76.2700   61.3120   42.5062 c8         1 CLA     -0.148500
      3 CAC        69.9950   56.6270   40.9057 a2         1 CLA     -0.012600
      4 CAD        73.8390   54.8174   34.1347 ck         1 CLA      0.398800
      5 NA         76.3194   58.2135   36.6077 ns         1 CLA     -0.225500
      6 CBA        79.2437   57.5340   32.6435 a2         1 CLA     -0.135000
      7 CBB        77.2272   61.5925   43.4002 c0         1 CLA     -0.395200
      8 CBC        70.0540   55.0818   40.9407 a3         1 CLA     -0.037700
      9 CBD        75.2993   55.4687   34.0291 a1         1 CLA     -0.053900
     10 NB         75.7285   59.5321   39.2965 nm         1 CLA     -0.295700
     11 OBD        73.4320   53.8803   33.4231 o2         1 CLA     -0.494600
     12 CGA        79.7363   56.0685   32.5163 c4         1 CLA      0.827000
     13 CGD        76.4214   54.4528   34.1064 c4         1 CLA      0.655300
     14 ND         73.5887   57.0885   36.8519 nm         1 CLA     -0.291600
     15 CED        77.2615   52.6270   35.3777 a3         1 CLA      0.005400
     16 CHA        75.3172   56.5899   35.0688 cs         1 CLA     -0.123800
     17 CHB        77.8499   59.5930   37.8851 aa         1 CLA     -0.291900
     18 CHC        74.1195   59.5909   41.2258 aa         1 CLA     -0.090400
     19 CHD        71.6481   56.6905   38.2985 aa         1 CLA     -0.052000
     20 CMA        79.8673   57.6863   36.3431 a3         1 CLA     -0.230700
     21 CMB        78.8659   61.3737   40.4050 a3         1 CLA     -0.180800
     22 CMC        71.7273   58.5262   42.8865 a3         1 CLA     -0.134000
     23 CMD        70.8106   54.7016   35.9718 a3         1 CLA     -0.141100
     24 C1         80.8352   54.2886   33.4551 a2         1 CLA      0.023000
     25 C1A        76.3578   57.3936   35.5021 ac         1 CLA     -0.015100
     26 C1B        77.0098   60.0098   39.0628 cr         1 CLA      0.054700
     27 C1C        73.1981   58.6775   40.8359 cn         1 CLA     -0.005600
     28 C1D        72.3687   56.4387   37.1410 ap         1 CLA     -0.047300
     29 O1A        79.5543   55.3335   31.5522 o2         1 CLA     -0.610800
     30 O1D        77.3480   54.4743   33.3179 o2         1 CLA     -0.558200
     31 C2         81.3470   53.8908   34.8545 c8         1 CLA     -0.325100
     32 C2A        77.7483   57.4855   34.8387 a1         1 CLA      0.098600
     33 C2B        77.4405   60.7734   40.2377 cb         1 CLA      0.088500
     34 C2C        72.0302   58.2114   41.5280 cb         1 CLA      0.053700
     35 C2D        72.0972   55.5225   36.1079 cb         1 CLA      0.058900
     36 O2A        80.4423   55.7205   33.5625 o1         1 CLA     -0.437200
     37 O2D        76.2552   53.6197   35.1730 o1         1 CLA     -0.357600
     38 C3         82.2390   52.9136   35.0697 c5         1 CLA      0.031200
     39 C3A        78.5729   58.3761   35.7435 a1         1 CLA      0.166800
     40 C3B        76.3395   60.7529   41.1411 cb         1 CLA      0.035000
     41 C3C        71.3070   57.3749   40.6137 cb         1 CLA     -0.089900
     42 C3D        73.2130   55.5086   35.2345 cb         1 CLA     -0.035900
     43 C4         81.7737   51.5780   35.4110 a3         1 CLA     -0.053300
     44 C4A        77.5509   58.7559   36.8369 ac         1 CLA      0.001800
     45 C4B        75.3141   59.9356   40.5465 cn         1 CLA     -0.020900
     46 C4C        72.0594   57.3864   39.4381 cr         1 CLA     -0.044400
     47 C4D        74.0833   56.4570   35.7129 c6         1 CLA     -0.046000
     48 C5         83.6953   53.1834   34.8852 a2         1 CLA     -0.070400
     49 C6         84.2723   54.4837   35.4964 a2         1 CLA      0.043900
     50 C7         84.1407   54.4284   37.0456 a2         1 CLA     -0.150000
     51 C8         84.6790   55.7192   37.7255 a1         1 CLA      0.064200
     52 C9         86.2109   55.9221   37.3816 a3         1 CLA     -0.259300
     53 C10        84.4640   55.9053   39.2852 a2         1 CLA     -0.071900
     54 C11        82.9643   55.9929   39.6794 a2         1 CLA      0.014500
     55 C12        82.6974   56.3647   41.0973 a2         1 CLA     -0.112100
     56 C13        81.1876   56.3918   41.4741 a1         1 CLA      0.089200
     57 C14        80.3157   57.3124   40.5081 a3         1 CLA     -0.239100
     58 C15        80.9431   56.7224   42.9818 a2         1 CLA     -0.102200
     59 C16        81.5350   58.0736   43.5118 a2         1 CLA      0.023900
     60 C17        80.8061   58.5882   44.7304 a2         1 CLA     -0.105700
     61 C18        81.1679   60.0892   44.9947 a1         1 CLA      0.206800
     62 C19        80.2320   60.6452   46.0775 a3         1 CLA     -0.280100
     63 C20        82.6321   60.3429   45.3942 a3         1 CLA     -0.280100
     64 NC         73.2005   58.0920   39.5460 nx         1 CLA     -0.309200
     65 MG         74.5605   58.4225   38.0195 mg         1 CLA      0.895000
     66 HMD3       70.8252   53.8818   36.7091 dc         1 CLA      0.064300
     67 HMD2       69.9140   55.4137   35.9442 dc         1 CLA      0.064300
     68 HMD1       70.8382   54.2225   34.9917 dc         1 CLA      0.064300
     69 HMC3       72.2934   59.3202   43.2901 dc         1 CLA      0.052100
     70 HMC2       70.6938   58.7941   43.0780 dc         1 CLA      0.052100
     71 HMC1       72.0200   57.5765   43.3685 dc         1 CLA      0.052100
     72 HMB3       79.2955   61.6395   39.4827 dc         1 CLA      0.063600
     73 HMB2       78.9134   62.2274   41.0781 dc         1 CLA      0.063600
     74 HMB1       79.4115   60.5908   40.8743 dc         1 CLA      0.063600
     75 HMA3       80.2421   58.3999   37.0380 dc         1 CLA      0.058300
     76 HMA2       79.5769   56.7555   36.7563 dc         1 CLA      0.058300
     77 HMA1       80.4952   57.5810   35.4649 dc         1 CLA      0.058300
     78 HED3       76.8314   51.9967   36.1544 dc         1 CLA      0.079300
     79 HED2       77.2527   51.9237   34.5318 dc         1 CLA      0.079300
     80 HED1       78.2734   52.9434   35.6164 dc         1 CLA      0.079300
     81 HBC3       70.1227   54.8069   39.9288 dc         1 CLA      0.016300
     82 HBC2       70.9305   54.7233   41.3932 dc         1 CLA      0.016300
     83 HBC1       69.1754   54.6921   41.4370 dc         1 CLA      0.016300
     84 HBB2       77.0435   61.8521   44.4833 da         1 CLA      0.183000
     85 HBB1       78.3004   61.4721   43.2155 da         1 CLA      0.183000
     86 HBA2       79.1416   57.8643   31.6544 dc         1 CLA      0.029400
     87 HBA1       80.0056   58.0119   33.2019 dc         1 CLA      0.029400
     88 HAC2       69.5234   57.0071   41.8268 dc         1 CLA      0.029300
     89 HAC1       69.2720   56.8940   40.1333 dc         1 CLA      0.029300
     90 HAA2       77.2215   57.2385   32.7290 dc         1 CLA      0.028700
     91 HAA1       77.5433   58.8842   33.1451 dc         1 CLA      0.028700
     92 H203       82.8963   59.7153   46.1709 dc         1 CLA      0.065600
     93 H202       83.2810   60.2215   44.5366 dc         1 CLA      0.065600
     94 H201       82.9311   61.3008   45.8088 dc         1 CLA      0.065600
     95 H193       79.1973   60.6328   45.7806 dc         1 CLA      0.065600
     96 H192       80.3542   60.1136   47.0147 dc         1 CLA      0.065600
     97 H191       80.4605   61.6814   46.2424 dc         1 CLA      0.065600
     98 H172       79.7329   58.7345   44.4197 dc         1 CLA      0.027600
     99 H171       80.7592   57.8062   45.5254 dc         1 CLA      0.027600
    100 H162       82.6742   58.0623   43.5788 dc         1 CLA      0.002900
    101 H161       81.1926   58.7604   42.7580 dc         1 CLA      0.002900
    102 H152       79.9479   56.5823   43.2682 dc         1 CLA      0.029100
    103 H151       81.5565   56.0050   43.5521 dc         1 CLA      0.029100
    104 H143       80.6370   58.3807   40.3225 dc         1 CLA      0.063600
    105 H142       80.1292   56.8286   39.5619 dc         1 CLA      0.063600
    106 H141       79.2530   57.2634   40.8408 dc         1 CLA      0.063600
    107 H122       83.1018   55.5302   41.6172 dc         1 CLA      0.032500
    108 H121       83.3731   57.1919   41.4959 dc         1 CLA      0.032500
    109 H112       82.4689   56.7540   39.0795 dc         1 CLA      0.006600
    110 H111       82.4790   55.0052   39.4875 dc         1 CLA      0.006600
    111 H102       84.8936   55.0609   39.8317 dc         1 CLA      0.024100
    112 H101       85.0298   56.7985   39.6789 dc         1 CLA      0.024100
    113 HHD        70.6443   56.2414   38.3932 da         1 CLA      0.174300
    114 HHC        74.0847   60.0897   42.1652 da         1 CLA      0.136800
    115 HHB        78.8548   60.0827   37.8106 da         1 CLA      0.138300
    116 HBD        75.4359   55.9146   33.1357 dc         1 CLA      0.107700
    117 HAB        75.2953   61.5394   42.9566 da         1 CLA      0.155200
    118 H93        86.7848   55.0315   37.6543 dc         1 CLA      0.069500
    119 H92        86.3782   56.2242   36.3238 dc         1 CLA      0.069500
    120 H91        86.6303   56.7048   38.0413 dc         1 CLA      0.069500
    121 H8         84.1565   56.5255   37.2350 dc         1 CLA      0.029300
    122 H72        83.0742   54.2600   37.3568 dc         1 CLA      0.044400
    123 H71        84.7185   53.5676   37.4350 dc         1 CLA      0.044400
    124 H62        85.3162   54.5896   35.3430 dc         1 CLA      0.015600
    125 H61        83.7705   55.3492   35.1339 dc         1 CLA      0.015600
    126 H52        84.3698   52.3224   35.1105 dc         1 CLA      0.033200
    127 H51        83.8510   53.3571   33.8763 dc         1 CLA      0.033200
    128 H43        81.7938   51.3446   36.5139 dc         1 CLA      0.037000
    129 H42        80.7653   51.3677   35.0713 dc         1 CLA      0.037000
    130 H41        82.3921   50.8636   34.9841 dc         1 CLA      0.037000
    131 H3A        78.8835   59.1785   35.1700 dc         1 CLA      0.041100
    132 H2A        78.0276   56.4510   35.0075 dc         1 CLA      0.083100
    133 H2         81.1619   54.5163   35.7014 da         1 CLA      0.180900
    134 H18        81.0723   60.6147   44.0795 dc         1 CLA     -0.003900
    135 H13        80.8527   55.3633   41.3150 dc         1 CLA      0.019700
    136 H12        79.9120   53.7233   33.2311 dc         1 CLA      0.120400
    137 H11        81.5988   54.1487   32.7074 dc         1 CLA      0.120400
    138 C1         67.6309   60.4465   48.7448 Z1         2 LUT      0.509236
    139 C2         66.2832   60.1837   49.3840 Z2         2 LUT     -0.434695
    140 C3         65.4467   61.4360   49.7507 Z3         2 LUT      0.437453
    141 O3         65.7820   61.9055   51.0826 S1         2 LUT     -0.547129
    142 C4         65.6578   62.5788   48.7824 Z4         2 LUT     -0.468603
    143 C5         66.3219   62.2241   47.4876 Z5         2 LUT      0.279246
    144 C6         67.2064   61.2563   47.4598 Z6         2 LUT     -0.305473
    145 C7         67.8142   60.7599   46.2007 Z7         2 LUT      0.069402
    146 C8         68.7045   61.3941   45.4035 Z8         2 LUT     -0.191631
    147 C9         69.1218   61.1110   44.0615 Z9         2 LUT      0.196698
    148 C10        70.1120   61.9184   43.5779 Y1         2 LUT     -0.208611
    149 C11        70.7219   61.9491   42.2670 Y2         2 LUT      0.030784
    150 C12        71.9071   62.6080   42.0251 Y3         2 LUT     -0.220316
    151 C13        72.6767   62.6723   40.7972 Y4         2 LUT      0.215937
    152 C14        73.8578   63.3753   40.7986 Y5         2 LUT     -0.185793
    153 C15        75.0451   63.3417   39.7787 Y6         2 LUT     -0.057835
    154 C16        68.4344   59.1430   48.3763 Y7         2 LUT     -0.405615
    155 C17        68.5362   61.2723   49.6362 Y7         2 LUT     -0.405615
    156 C18        65.8098   63.0853   46.3299 Y9         2 LUT     -0.369639
    157 C19        68.4470   59.9569   43.3910 W1         2 LUT     -0.333362
    158 C20        72.2313   61.7277   39.7074 W2         2 LUT     -0.323439
    159 C21        86.8646   64.2751   33.9947 Z1         2 LUT      0.406104
    160 C22        87.5228   63.8988   32.6608 Z2         2 LUT     -0.404965
    161 C23        87.5886   65.1139   31.6932 Z3         2 LUT      0.391255
    162 O23        88.2991   64.7959   30.5195 S1         2 LUT     -0.528210
    163 C24        86.3260   65.8611   31.5008 W6         2 LUT     -0.258361
    164 C25        85.3274   65.8520   32.4126 Z5         2 LUT      0.133546
    165 C26        85.3947   64.9985   33.7051 W8         2 LUT     -0.147008
    166 C27        84.6405   65.6099   34.9337 Z7         2 LUT      0.023843
    167 C28        83.4226   65.2676   35.4613 Z8         2 LUT     -0.216987
    168 C29        82.7030   65.7935   36.5816 Z9         2 LUT      0.206524
    169 C30        81.6129   65.0444   36.9078 Y1         2 LUT     -0.215556
    170 C31        80.7000   65.1664   38.0621 Y2         2 LUT      0.025142
    171 C32        79.5916   64.4539   38.2667 Y3         2 LUT     -0.212209
    172 C33        78.4814   64.4909   39.2506 Y4         2 LUT      0.240937
    173 C34        77.2918   63.8966   39.1128 Y5         2 LUT     -0.218862
    174 C35        76.1522   64.0172   39.9863 Y6         2 LUT     -0.023547
    175 C36        87.7896   65.2308   34.8352 Y7         2 LUT     -0.393485
    176 C37        86.6282   62.9937   34.8061 Y7         2 LUT     -0.393485
    177 C38        84.0036   66.3975   32.0389 Y9         2 LUT     -0.387526
    178 C39        83.2502   66.8858   37.3374 W1         2 LUT     -0.322618
    179 C40        78.8476   65.3121   40.5141 W2         2 LUT     -0.358472
    180 H403       78.2482   66.1447   40.5214 R7         2 LUT      0.097720
    181 H402       78.7130   64.7445   41.3938 R7         2 LUT      0.097720
    182 H401       79.9370   65.5002   40.5704 R7         2 LUT      0.097720
    183 H393       84.0180   67.4621   36.8900 R4         2 LUT      0.082505
    184 H392       82.4893   67.5343   37.7681 R4         2 LUT      0.082505
    185 H391       83.8646   66.3951   38.1510 R4         2 LUT      0.082505
    186 H383       83.8374   67.0519   31.1033 R1         2 LUT      0.104030
    187 H382       83.4104   65.5548   31.7893 R1         2 LUT      0.104030
    188 H381       83.5745   66.9232   32.8891 R1         2 LUT      0.104030
    189 H373       86.0541   62.1743   34.2778 T4         2 LUT      0.089537
    190 H372       87.5642   62.5394   35.0564 T4         2 LUT      0.089537
    191 H371       86.0933   63.1266   35.7105 T4         2 LUT      0.089537
    192 H363       88.7623   64.8893   34.8753 T4         2 LUT      0.089537
    193 H362       87.7798   66.2141   34.3502 T4         2 LUT      0.089537
    194 H361       87.4973   65.4297   35.8600 T4         2 LUT      0.089537
    195 H222       88.5018   63.4698   32.7656 U2         2 LUT      0.127376
    196 H221       86.8418   63.2524   32.0521 U2         2 LUT      0.127376
    197 H203       73.0564   61.2665   39.1369 R7         2 LUT      0.087068
    198 H202       71.8011   60.7898   40.0967 R7         2 LUT      0.087068
    199 H201       71.4806   62.1162   38.9976 R7         2 LUT      0.087068
    200 H193       67.3816   60.1642   43.2757 R4         2 LUT      0.089716
    201 H192       68.7954   59.7353   42.4439 R4         2 LUT      0.089716
    202 H191       68.5313   59.0925   44.0054 R4         2 LUT      0.089716
    203 H183       64.7456   63.2946   46.4188 R1         2 LUT      0.094572
    204 H182       66.3529   64.0379   46.3278 R1         2 LUT      0.094572
    205 H181       65.8776   62.6281   45.3364 R1         2 LUT      0.094572
    206 H173       68.8626   60.5931   50.4887 T4         2 LUT      0.093752
    207 H172       69.4565   61.6165   49.1200 T4         2 LUT      0.093752
    208 H171       68.0158   62.1206   50.0274 T4         2 LUT      0.093752
    209 H163       69.3136   59.3553   47.7456 T4         2 LUT      0.093752
    210 H162       68.8281   58.6941   49.2866 T4         2 LUT      0.093752
    211 H161       67.7158   58.4699   47.8394 T4         2 LUT      0.093752
    212 HO3        65.4916   61.3173   51.7921 Q1         2 LUT      0.300121
    213 H8         69.1003   62.3196   45.9058 U7         2 LUT      0.080784
    214 H7         67.4705   59.8135   45.8427 U6         2 LUT      0.042190
    215 H42        64.7410   63.0995   48.6633 U5         2 LUT      0.145166
    216 H41        66.1176   63.4048   49.3345 U5         2 LUT      0.145166
    217 H35        76.0370   64.6143   40.8608 T3         2 LUT      0.077919
    218 H34        77.1746   63.2206   38.2805 T2         2 LUT      0.073626
    219 H32        79.3876   63.6995   37.5285 T1         2 LUT      0.092510
    220 H31        80.8290   66.0464   38.6863 U9         2 LUT      0.070048
    221 H30        81.3673   64.2167   36.1714 U8         2 LUT      0.085442
    222 H3         64.4173   61.0669   49.7002 U3         2 LUT     -0.031596
    223 H28        82.8651   64.5510   34.8184 U7         2 LUT      0.084728
    224 H27        85.2617   66.3210   35.5029 U6         2 LUT      0.087291
    225 H26        84.7152   64.1266   33.4173 Q6         2 LUT      0.075325
    226 H24        86.1342   66.4009   30.5453 Q5         2 LUT      0.094482
    227 H23        88.0818   65.9190   32.2137 U3         2 LUT     -0.024869
    228 H22        65.6649   59.5504   48.7477 U2         2 LUT      0.127376
    229 H21        66.4401   59.4999   50.2036 U2         2 LUT      0.127376
    230 H15        75.0577   62.7022   38.8763 T3         2 LUT      0.093200
    231 H14        74.0600   63.8735   41.7031 T2         2 LUT      0.068865
    232 H12        72.4081   63.1065   42.8554 T1         2 LUT      0.095507
    233 H11        70.1151   61.4934   41.4837 U9         2 LUT      0.068930
    234 H10        70.5940   62.6389   44.2779 U8         2 LUT      0.083911
    235 H1         87.7647   64.3261   29.9188 Q1         2 LUT      0.297311
@<TRIPOS>BOND
    1     6     1 1
    2     7     2 1
    3     8     3 1
    4     9     4 1
    5    11     4 1
    6    12     6 1
    7    13     9 1
    8    16     9 1
    9    25     5 1
   10    25    16 1
   11    26    10 1
   12    26    17 1
   13    27    18 1
   14    28    14 1
   15    28    19 1
   16    29    12 1
   17    30    13 1
   18    31    24 1
   19    32     1 1
   20    32    25 1
   21    33    21 1
   22    33    26 1
   23    34    22 1
   24    34    27 1
   25    35    23 1
   26    35    28 1
   27    36    12 1
   28    36    24 1
   29    37    13 1
   30    37    15 1
   31    38    31 1
   32    39    20 1
   33    39    32 1
   34    40     2 1
   35    40    33 1
   36    41     3 1
   37    41    34 1
   38    42     4 1
   39    42    35 1
   40    43    38 1
   41    44     5 1
   42    44    17 1
   43    44    39 1
   44    45    10 1
   45    45    18 1
   46    45    40 1
   47    46    19 1
   48    46    41 1
   49    47    14 1
   50    47    16 1
   51    47    42 1
   52    48    38 1
   53    49    48 1
   54    50    49 1
   55    51    50 1
   56    52    51 1
   57    53    51 1
   58    54    53 1
   59    55    54 1
   60    56    55 1
   61    57    56 1
   62    58    56 1
   63    59    58 1
   64    60    59 1
   65    61    60 1
   66    62    61 1
   67    63    61 1
   68    64    27 1
   69    64    46 1
   70    65     5 1
   71    65    10 1
   72    65    64 1
   73    65    14 1
   74    66    23 1
   75    67    23 1
   76    68    23 1
   77    69    22 1
   78    70    22 1
   79    71    22 1
   80    72    21 1
   81    73    21 1
   82    74    21 1
   83    75    20 1
   84    76    20 1
   85    77    20 1
   86    78    15 1
   87    79    15 1
   88    80    15 1
   89    81     8 1
   90    82     8 1
   91    83     8 1
   92    84     7 1
   93    85     7 1
   94    86     6 1
   95    87     6 1
   96    88     3 1
   97    89     3 1
   98    90     1 1
   99    91     1 1
  100    92    63 1
  101    93    63 1
  102    94    63 1
  103    95    62 1
  104    96    62 1
  105    97    62 1
  106    98    60 1
  107    99    60 1
  108   100    59 1
  109   101    59 1
  110   102    58 1
  111   103    58 1
  112   104    57 1
  113   105    57 1
  114   106    57 1
  115   107    55 1
  116   108    55 1
  117   109    54 1
  118   110    54 1
  119   111    53 1
  120   112    53 1
  121   113    19 1
  122   114    18 1
  123   115    17 1
  124   116     9 1
  125   117     2 1
  126   118    52 1
  127   119    52 1
  128   120    52 1
  129   121    51 1
  130   122    50 1
  131   123    50 1
  132   124    49 1
  133   125    49 1
  134   126    48 1
  135   127    48 1
  136   128    43 1
  137   129    43 1
  138   130    43 1
  139   131    39 1
  140   132    32 1
  141   133    31 1
  142   134    61 1
  143   135    56 1
  144   136    24 1
  145   137    24 1
  146   139   138 1
  147   140   139 1
  148   141   140 1
  149   142   140 1
  150   143   142 1
  151   144   138 1
  152   144   143 1
  153   145   144 1
  154   146   145 1
  155   147   146 1
  156   148   147 1
  157   149   148 1
  158   150   149 1
  159   151   150 1
  160   152   151 1
  161   153   152 1
  162   154   138 1
  163   155   138 1
  164   156   143 1
  165   157   147 1
  166   158   151 1
  167   160   159 1
  168   161   160 1
  169   162   161 1
  170   163   161 1
  171   164   163 1
  172   165   159 1
  173   165   164 1
  174   166   165 1
  175   167   166 1
  176   168   167 1
  177   169   168 1
  178   170   169 1
  179   171   170 1
  180   172   171 1
  181   173   172 1
  182   174   153 1
  183   174   173 1
  184   175   159 1
  185   176   159 1
  186   177   164 1
  187   178   168 1
  188   179   172 1
  189   180   179 1
  190   181   179 1
  191   182   179 1
  192   183   178 1
  193   184   178 1
  194   185   178 1
  195   186   177 1
  196   187   177 1
  197   188   177 1
  198   189   176 1
  199   190   176 1
  200   191   176 1
  201   192   175 1
  202   193   175 1
  203   194   175 1
  204   195   160 1
  205   196   160 1
  206   197   158 1
  207   198   158 1
  208   199   158 1
  209   200   157 1
  210   201   157 1
  211   202   157 1
  212   203   156 1
  213   204   156 1
  214   205   156 1
  215   206   155 1
  216   207   155 1
  217   208   155 1
  218   209   154 1
  219   210   154 1
  220   211   154 1
  221   212   141 1
  222   213   146 1
  223   214   145 1
  224   215   142 1
  225   216   142 1
  226   217   174 1
  227   218   173 1
  228   219   171 1
  229   220   170 1
  230   221   169 1
  231   222   140 1
  232   223   167 1
  233   224   166 1
  234   225   165 1
  235   226   163 1
  236   227   161 1
  237   228   139 1
  238   229   139 1
  239   230   153 1
  240   231   152 1
  241   232   150 1
  242   233   149 1
  243   234   148 1
  244   235   162 1
  245   65    153 1
  246   65    174 1
@<TRIPOS>SUBSTRUCTURE
      1 CLA               1 ****               0 ****  **** 
      2 LUT             138 ****               0 ****  **** 
