@<TRIPOS>MOLECULE
Cpptraj generated mol2 file.
  235   246     2     0     0
SMALL
USER_CHARGES


@<TRIPOS>ATOM
      1 CAA        77.6826   59.1514   33.3090 a2         1 CLA     -0.055900
      2 CAB        78.5249   62.7126   42.4996 c8         1 CLA     -0.148500
      3 CAC        71.8126   58.3740   42.5051 a2         1 CLA     -0.012600
      4 CAD        73.7937   56.3335   34.9172 ck         1 CLA      0.398800
      5 NA         76.8754   59.5751   36.7883 ns         1 CLA     -0.225500
      6 CBA        78.9116   59.1299   32.3969 a2         1 CLA     -0.135000
      7 CBB        79.7423   62.6805   43.0613 c0         1 CLA     -0.395200
      8 CBC        72.1666   56.9095   42.6597 a3         1 CLA     -0.037700
      9 CBD        75.1729   56.9924   34.4113 a1         1 CLA     -0.053900
     10 NB         76.9341   61.1413   39.3927 nm         1 CLA     -0.295700
     11 OBD        73.1428   55.5214   34.2942 o2         1 CLA     -0.494600
     12 CGA        79.3234   57.7516   32.0622 c4         1 CLA      0.827000
     13 CGD        76.2005   55.9082   34.2571 c4         1 CLA      0.655300
     14 ND         74.3917   58.3969   37.6730 nm         1 CLA     -0.291600
     15 CED        77.0011   53.9153   35.2600 a3         1 CLA      0.005400
     16 CHA        75.5403   57.9709   35.5189 cs         1 CLA     -0.123800
     17 CHB        78.6936   60.9944   37.7155 aa         1 CLA     -0.291900
     18 CHC        75.8722   61.2554   41.6250 aa         1 CLA     -0.090400
     19 CHD        72.7284   58.0958   39.5220 aa         1 CLA     -0.052000
     20 CMA        80.3207   59.0750   35.8204 a3         1 CLA     -0.230700
     21 CMB        80.3482   62.7123   39.8020 a3         1 CLA     -0.180800
     22 CMC        73.7783   60.5348   43.8717 a3         1 CLA     -0.134000
     23 CMD        71.2935   56.1327   37.4231 a3         1 CLA     -0.141100
     24 C1         80.2852   55.7371   33.0758 a2         1 CLA      0.023000
     25 C1A        76.6995   58.7664   35.6650 ac         1 CLA     -0.015100
     26 C1B        78.1842   61.5166   38.9305 cr         1 CLA      0.054700
     27 C1C        74.7382   60.4788   41.4062 cn         1 CLA     -0.005600
     28 C1D        73.2195   57.8272   38.2576 ap         1 CLA     -0.047300
     29 O1A        79.1204   57.1393   31.0038 o2         1 CLA     -0.610800
     30 O1D        77.0297   55.8429   33.3832 o2         1 CLA     -0.558200
     31 C2         80.6830   55.3095   34.4525 c8         1 CLA     -0.325100
     32 C2A        77.9397   58.6965   34.7422 a1         1 CLA      0.098600
     33 C2B        78.9251   62.2250   39.9898 cb         1 CLA      0.088500
     34 C2C        73.7574   60.1139   42.4155 cb         1 CLA      0.053700
     35 C2D        72.5726   56.9789   37.2474 cb         1 CLA      0.058900
     36 O2A        80.0047   57.1571   33.1834 o1         1 CLA     -0.437200
     37 O2D        76.0699   54.9964   35.2853 o1         1 CLA     -0.357600
     38 C3         81.5795   54.3735   34.7280 c5         1 CLA      0.031200
     39 C3A        78.9167   59.7069   35.4946 a1         1 CLA      0.166800
     40 C3B        78.1581   62.2046   41.1271 cb         1 CLA      0.035000
     41 C3C        72.8938   59.1872   41.7875 cb         1 CLA     -0.089900
     42 C3D        73.5248   56.9485   36.1353 cb         1 CLA     -0.035900
     43 C4         81.3585   52.9457   35.1601 a3         1 CLA     -0.053300
     44 C4A        78.1118   60.0891   36.7733 ac         1 CLA      0.001800
     45 C4B        76.9124   61.5462   40.7354 cn         1 CLA     -0.020900
     46 C4C        73.3121   59.0077   40.4012 cr         1 CLA     -0.044400
     47 C4D        74.5329   57.8908   36.4692 c6         1 CLA     -0.046000
     48 C5         83.0516   54.6546   34.3655 a2         1 CLA     -0.070400
     49 C6         83.6110   56.0334   34.6369 a2         1 CLA      0.043900
     50 C7         83.7074   56.2327   36.1453 a2         1 CLA     -0.150000
     51 C8         84.7995   57.1296   36.7890 a1         1 CLA      0.064200
     52 C9         86.1969   56.5403   36.5552 a3         1 CLA     -0.259300
     53 C10        84.5458   57.1994   38.3386 a2         1 CLA     -0.071900
     54 C11        83.1511   57.4992   39.0199 a2         1 CLA      0.014500
     55 C12        83.3036   57.8180   40.5783 a2         1 CLA     -0.112100
     56 C13        82.0981   57.6225   41.5105 a1         1 CLA      0.089200
     57 C14        80.9389   58.6908   41.3863 a3         1 CLA     -0.239100
     58 C15        82.4676   57.3532   42.9904 a2         1 CLA     -0.102200
     59 C16        82.8540   58.5813   43.7307 a2         1 CLA      0.023900
     60 C17        83.3559   58.1753   45.0979 a2         1 CLA     -0.105700
     61 C18        84.0760   59.3402   45.7425 a1         1 CLA      0.206800
     62 C19        83.0593   60.4771   46.0213 a3         1 CLA     -0.280100
     63 C20        84.6814   58.7565   47.0225 a3         1 CLA     -0.280100
     64 NC         74.4603   59.7894   40.1572 nx         1 CLA     -0.309200
     65 MG         75.5880   59.9031   38.3872 mg         1 CLA      0.895000
     66 HMD3       71.3689   55.3307   38.2589 dc         1 CLA      0.064300
     67 HMD2       70.4121   56.7930   37.5817 dc         1 CLA      0.064300
     68 HMD1       71.3031   55.5170   36.4717 dc         1 CLA      0.064300
     69 HMC3       74.7657   60.9552   44.0815 dc         1 CLA      0.052100
     70 HMC2       72.9762   61.2385   44.1089 dc         1 CLA      0.052100
     71 HMC1       73.5057   59.6277   44.3230 dc         1 CLA      0.052100
     72 HMB3       80.3927   63.6323   40.4621 dc         1 CLA      0.063600
     73 HMB2       81.0745   61.9683   40.0828 dc         1 CLA      0.063600
     74 HMB1       80.4229   63.1054   38.7858 dc         1 CLA      0.063600
     75 HMA3       80.9899   59.7401   36.2107 dc         1 CLA      0.058300
     76 HMA2       80.2080   58.2217   36.4602 dc         1 CLA      0.058300
     77 HMA1       80.7137   58.7779   34.8145 dc         1 CLA      0.058300
     78 HED3       76.7543   53.4067   36.1871 dc         1 CLA      0.079300
     79 HED2       76.7566   53.1810   34.5025 dc         1 CLA      0.079300
     80 HED1       78.0650   54.1236   35.2387 dc         1 CLA      0.079300
     81 HBC3       71.3271   56.2801   43.0804 dc         1 CLA      0.016300
     82 HBC2       72.3013   56.5222   41.5663 dc         1 CLA      0.016300
     83 HBC1       73.1019   56.6821   43.2531 dc         1 CLA      0.016300
     84 HBB2       79.8364   62.8859   44.1372 da         1 CLA      0.183000
     85 HBB1       80.6133   62.2984   42.5222 da         1 CLA      0.183000
     86 HBA2       78.6544   59.5730   31.4768 dc         1 CLA      0.029400
     87 HBA1       79.7316   59.6723   32.8765 dc         1 CLA      0.029400
     88 HAC2       71.3446   58.8794   43.3751 dc         1 CLA      0.029300
     89 HAC1       71.0167   58.3268   41.8253 dc         1 CLA      0.029300
     90 HAA2       76.9364   58.5041   32.8096 dc         1 CLA      0.028700
     91 HAA1       77.2917   60.1373   33.3199 dc         1 CLA      0.028700
     92 H203       85.1010   57.7418   46.9861 dc         1 CLA      0.065600
     93 H202       85.4585   59.4509   47.3562 dc         1 CLA      0.065600
     94 H201       83.9030   58.7658   47.7646 dc         1 CLA      0.065600
     95 H193       82.6704   61.1158   45.1894 dc         1 CLA      0.065600
     96 H192       82.2310   60.0203   46.4713 dc         1 CLA      0.065600
     97 H191       83.5827   61.0739   46.7587 dc         1 CLA      0.065600
     98 H172       82.4726   58.0590   45.7500 dc         1 CLA      0.027600
     99 H171       83.9832   57.3017   45.0378 dc         1 CLA      0.027600
    100 H162       83.6327   59.0384   43.1850 dc         1 CLA      0.002900
    101 H161       82.0026   59.2012   43.8684 dc         1 CLA      0.002900
    102 H152       81.6188   56.8690   43.5735 dc         1 CLA      0.029100
    103 H151       83.2887   56.7151   43.0288 dc         1 CLA      0.029100
    104 H143       80.1795   58.1545   41.8494 dc         1 CLA      0.063600
    105 H142       81.1098   59.6317   41.9459 dc         1 CLA      0.063600
    106 H141       80.5702   58.9635   40.3587 dc         1 CLA      0.063600
    107 H122       84.0409   57.0301   40.9648 dc         1 CLA      0.032500
    108 H121       83.8176   58.7496   40.7444 dc         1 CLA      0.032500
    109 H112       82.7927   58.4228   38.6020 dc         1 CLA      0.006600
    110 H111       82.5569   56.6672   38.8547 dc         1 CLA      0.006600
    111 H102       84.8809   56.2979   38.7189 dc         1 CLA      0.024100
    112 H101       85.2640   57.9433   38.6875 dc         1 CLA      0.024100
    113 HHD        71.8467   57.6458   39.8379 da         1 CLA      0.174300
    114 HHC        76.0063   61.7001   42.6292 da         1 CLA      0.136800
    115 HHB        79.7271   61.4260   37.5813 da         1 CLA      0.138300
    116 HBD        75.1182   57.4815   33.3970 dc         1 CLA      0.107700
    117 HAB        77.7653   63.0227   43.2454 da         1 CLA      0.155200
    118 H93        86.5094   56.8760   35.5487 dc         1 CLA      0.069500
    119 H92        86.9655   57.0081   37.1761 dc         1 CLA      0.069500
    120 H91        86.2290   55.4154   36.6304 dc         1 CLA      0.069500
    121 H8         84.6590   58.0339   36.3612 dc         1 CLA      0.029300
    122 H72        82.7351   56.7308   36.2339 dc         1 CLA      0.044400
    123 H71        83.7856   55.2377   36.6674 dc         1 CLA      0.044400
    124 H62        84.6126   56.2529   34.2378 dc         1 CLA      0.015600
    125 H61        83.0485   56.8674   34.2266 dc         1 CLA      0.015600
    126 H52        83.6851   53.8222   34.7659 dc         1 CLA      0.033200
    127 H51        83.2364   54.4893   33.3052 dc         1 CLA      0.033200
    128 H43        80.3231   52.6446   34.9396 dc         1 CLA      0.037000
    129 H42        82.0799   52.1615   34.7367 dc         1 CLA      0.037000
    130 H41        81.6476   53.0110   36.2467 dc         1 CLA      0.037000
    131 H3A        79.2561   60.5727   34.8697 dc         1 CLA      0.041100
    132 H2A        78.5353   57.8103   34.8176 dc         1 CLA      0.083100
    133 H2         80.3818   56.0763   35.2568 da         1 CLA      0.180900
    134 H18        84.8120   59.7372   45.0665 dc         1 CLA     -0.003900
    135 H13        81.5764   56.6955   41.2167 dc         1 CLA      0.019700
    136 H12        79.3821   55.1485   32.9272 dc         1 CLA      0.120400
    137 H11        81.0486   55.4678   32.3438 dc         1 CLA      0.120400
    138 C1         68.1184   61.7478   49.0660 Z1         2 LUT      0.509236
    139 C2         67.8595   62.4804   50.3130 Z2         2 LUT     -0.434695
    140 C3         66.3531   62.7889   50.6010 Z3         2 LUT      0.437453
    141 O3         66.3368   63.4152   51.8949 S1         2 LUT     -0.547129
    142 C4         65.7670   63.6605   49.5464 Z4         2 LUT     -0.468603
    143 C5         66.3166   63.3767   48.1651 Z5         2 LUT      0.279246
    144 C6         67.2321   62.4113   47.9345 Z6         2 LUT     -0.305473
    145 C7         67.8123   62.1694   46.6235 Z7         2 LUT      0.069402
    146 C8         68.8922   62.6961   45.9859 Z8         2 LUT     -0.191631
    147 C9         69.5056   62.4040   44.6237 Z9         2 LUT      0.196698
    148 C10        70.5228   63.1956   44.2052 Y1         2 LUT     -0.208611
    149 C11        71.3552   63.0421   43.0082 Y2         2 LUT      0.030784
    150 C12        72.4196   63.9237   42.7365 Y3         2 LUT     -0.220316
    151 C13        73.3895   63.8625   41.6924 Y4         2 LUT      0.215937
    152 C14        74.5017   64.5560   41.9031 Y5         2 LUT     -0.185793
    153 C15        75.5124   64.7684   40.9110 Y6         2 LUT     -0.057835
    154 C16        67.6741   60.2107   49.3367 Y7         2 LUT     -0.405615
    155 C17        69.5895   61.7784   48.8265 Y7         2 LUT     -0.405615
    156 C18        65.6778   64.3061   47.1513 Y9         2 LUT     -0.369639
    157 C19        69.0291   61.2518   43.8854 W1         2 LUT     -0.333362
    158 C20        72.9473   63.2472   40.3699 W2         2 LUT     -0.323439
    159 C21        86.8542   65.9908   34.2877 Z1         2 LUT      0.406104
    160 C22        87.6003   65.7458   32.8765 Z2         2 LUT     -0.404965
    161 C23        87.5956   66.8226   31.8321 Z3         2 LUT      0.391255
    162 O23        88.3208   66.4091   30.6426 S1         2 LUT     -0.528210
    163 C24        86.2459   67.3957   31.7054 W6         2 LUT     -0.258361
    164 C25        85.3645   67.4967   32.6825 Z5         2 LUT      0.133546
    165 C26        85.4535   66.5678   33.9557 W8         2 LUT     -0.147008
    166 C27        84.6857   67.1588   35.1568 Z7         2 LUT      0.023843
    167 C28        83.4445   66.7962   35.6166 Z8         2 LUT     -0.216987
    168 C29        82.7283   67.3084   36.7303 Z9         2 LUT      0.206524
    169 C30        81.7063   66.5455   37.2713 Y1         2 LUT     -0.215556
    170 C31        80.8997   66.8892   38.4170 Y2         2 LUT      0.025142
    171 C32        79.7804   66.1291   38.7540 Y3         2 LUT     -0.212209
    172 C33        78.8864   66.2852   39.9138 Y4         2 LUT      0.240937
    173 C34        77.7054   65.5468   39.9946 Y5         2 LUT     -0.218862
    174 C35        76.7778   65.3330   41.0926 Y6         2 LUT     -0.023547
    175 C36        87.7518   66.8308   35.2170 Y7         2 LUT     -0.393485
    176 C37        86.7341   64.5794   34.9442 Y7         2 LUT     -0.393485
    177 C38        84.0858   68.3477   32.5298 Y9         2 LUT     -0.387526
    178 C39        83.2354   68.5310   37.4850 W1         2 LUT     -0.322618
    179 C40        79.4655   67.1128   40.9804 W2         2 LUT     -0.358472
    180 H403       79.5019   68.2466   40.8649 R7         2 LUT      0.097720
    181 H402       78.9427   66.9747   41.9215 R7         2 LUT      0.097720
    182 H401       80.5575   66.9653   41.2403 R7         2 LUT      0.097720
    183 H393       82.5043   68.8814   38.2577 R4         2 LUT      0.082505
    184 H392       84.1519   68.2233   38.0510 R4         2 LUT      0.082505
    185 H391       83.4464   69.3071   36.7828 R4         2 LUT      0.082505
    186 H383       84.2445   69.0772   31.6973 R1         2 LUT      0.104030
    187 H382       83.2701   67.7244   32.2280 R1         2 LUT      0.104030
    188 H381       83.7603   68.9102   33.4063 R1         2 LUT      0.104030
    189 H373       87.6863   64.2058   35.3225 T4         2 LUT      0.089537
    190 H372       86.1701   64.7315   35.8724 T4         2 LUT      0.089537
    191 H371       86.2813   63.9145   34.2921 T4         2 LUT      0.089537
    192 H363       88.6446   66.1985   35.4222 T4         2 LUT      0.089537
    193 H362       88.1032   67.7467   34.8128 T4         2 LUT      0.089537
    194 H361       87.2880   67.0951   36.1323 T4         2 LUT      0.089537
    195 H222       88.5969   65.4249   33.1793 U2         2 LUT      0.127376
    196 H221       87.1797   64.8508   32.4297 U2         2 LUT      0.127376
    197 H203       73.3193   62.2616   40.4147 R7         2 LUT      0.087068
    198 H202       71.8768   63.2147   40.1978 R7         2 LUT      0.087068
    199 H201       73.3244   63.8239   39.5110 R7         2 LUT      0.087068
    200 H193       69.5609   61.1008   42.9504 R4         2 LUT      0.089716
    201 H192       69.1997   60.3110   44.4371 R4         2 LUT      0.089716
    202 H191       68.0133   61.2629   43.6610 R4         2 LUT      0.089716
    203 H183       65.9231   63.8903   46.1636 R1         2 LUT      0.094572
    204 H182       64.5904   64.2717   47.2103 R1         2 LUT      0.094572
    205 H181       65.8413   65.3967   47.2652 R1         2 LUT      0.094572
    206 H173       70.1453   61.4004   49.6807 T4         2 LUT      0.093752
    207 H172       69.9190   61.1653   47.9387 T4         2 LUT      0.093752
    208 H171       69.9952   62.7710   48.5715 T4         2 LUT      0.093752
    209 H163       68.1737   59.7640   50.1604 T4         2 LUT      0.093752
    210 H162       66.6323   60.1812   49.5047 T4         2 LUT      0.093752
    211 H161       67.9409   59.5704   48.4343 T4         2 LUT      0.093752
    212 HO3        66.0462   62.6836   52.4982 Q1         2 LUT      0.300121
    213 H8         69.3145   63.6263   46.4287 U7         2 LUT      0.080784
    214 H7         67.3852   61.3172   46.1588 U6         2 LUT      0.042190
    215 H42        64.7111   63.5375   49.4763 U5         2 LUT      0.145166
    216 H41        66.0668   64.6220   49.9082 U5         2 LUT      0.145166
    217 H35        76.9607   65.6467   42.0829 T3         2 LUT      0.077919
    218 H34        77.3884   64.9376   39.1520 T2         2 LUT      0.073626
    219 H32        79.4614   65.2750   38.1142 T1         2 LUT      0.092510
    220 H31        81.1421   67.6733   39.0692 U9         2 LUT      0.070048
    221 H30        81.4560   65.6397   36.7141 U8         2 LUT      0.085442
    222 H3         65.8220   61.8800   50.5428 U3         2 LUT     -0.031596
    223 H28        83.0846   65.8859   35.0902 U7         2 LUT      0.084728
    224 H27        85.1895   67.8442   35.8250 U6         2 LUT      0.087291
    225 H26        84.8415   65.7422   33.5903 Q6         2 LUT      0.075325
    226 H24        86.0490   68.0333   30.8324 Q5         2 LUT      0.094482
    227 H23        88.1889   67.6943   32.1901 U3         2 LUT     -0.024869
    228 H22        68.3293   61.9728   51.2233 U2         2 LUT      0.127376
    229 H21        68.2962   63.4674   50.2704 U2         2 LUT      0.127376
    230 H15        75.2837   64.5129   39.9307 T3         2 LUT      0.093200
    231 H14        74.7330   65.0585   42.8022 T2         2 LUT      0.068865
    232 H12        72.6878   64.6190   43.5142 T1         2 LUT      0.095507
    233 H11        71.1779   62.2679   42.1972 U9         2 LUT      0.068930
    234 H10        70.7778   64.0992   44.8546 U8         2 LUT      0.083911
    235 H1         87.7032   65.8412   30.1166 Q1         2 LUT      0.297311
@<TRIPOS>BOND
    1     6     1 1
    2     7     2 1
    3     8     3 1
    4     9     4 1
    5    11     4 1
    6    12     6 1
    7    13     9 1
    8    16     9 1
    9    25     5 1
   10    25    16 1
   11    26    10 1
   12    26    17 1
   13    27    18 1
   14    28    14 1
   15    28    19 1
   16    29    12 1
   17    30    13 1
   18    31    24 1
   19    32     1 1
   20    32    25 1
   21    33    21 1
   22    33    26 1
   23    34    22 1
   24    34    27 1
   25    35    23 1
   26    35    28 1
   27    36    12 1
   28    36    24 1
   29    37    13 1
   30    37    15 1
   31    38    31 1
   32    39    20 1
   33    39    32 1
   34    40     2 1
   35    40    33 1
   36    41     3 1
   37    41    34 1
   38    42     4 1
   39    42    35 1
   40    43    38 1
   41    44     5 1
   42    44    17 1
   43    44    39 1
   44    45    10 1
   45    45    18 1
   46    45    40 1
   47    46    19 1
   48    46    41 1
   49    47    14 1
   50    47    16 1
   51    47    42 1
   52    48    38 1
   53    49    48 1
   54    50    49 1
   55    51    50 1
   56    52    51 1
   57    53    51 1
   58    54    53 1
   59    55    54 1
   60    56    55 1
   61    57    56 1
   62    58    56 1
   63    59    58 1
   64    60    59 1
   65    61    60 1
   66    62    61 1
   67    63    61 1
   68    64    27 1
   69    64    46 1
   70    65     5 1
   71    65    10 1
   72    65    64 1
   73    65    14 1
   74    66    23 1
   75    67    23 1
   76    68    23 1
   77    69    22 1
   78    70    22 1
   79    71    22 1
   80    72    21 1
   81    73    21 1
   82    74    21 1
   83    75    20 1
   84    76    20 1
   85    77    20 1
   86    78    15 1
   87    79    15 1
   88    80    15 1
   89    81     8 1
   90    82     8 1
   91    83     8 1
   92    84     7 1
   93    85     7 1
   94    86     6 1
   95    87     6 1
   96    88     3 1
   97    89     3 1
   98    90     1 1
   99    91     1 1
  100    92    63 1
  101    93    63 1
  102    94    63 1
  103    95    62 1
  104    96    62 1
  105    97    62 1
  106    98    60 1
  107    99    60 1
  108   100    59 1
  109   101    59 1
  110   102    58 1
  111   103    58 1
  112   104    57 1
  113   105    57 1
  114   106    57 1
  115   107    55 1
  116   108    55 1
  117   109    54 1
  118   110    54 1
  119   111    53 1
  120   112    53 1
  121   113    19 1
  122   114    18 1
  123   115    17 1
  124   116     9 1
  125   117     2 1
  126   118    52 1
  127   119    52 1
  128   120    52 1
  129   121    51 1
  130   122    50 1
  131   123    50 1
  132   124    49 1
  133   125    49 1
  134   126    48 1
  135   127    48 1
  136   128    43 1
  137   129    43 1
  138   130    43 1
  139   131    39 1
  140   132    32 1
  141   133    31 1
  142   134    61 1
  143   135    56 1
  144   136    24 1
  145   137    24 1
  146   139   138 1
  147   140   139 1
  148   141   140 1
  149   142   140 1
  150   143   142 1
  151   144   138 1
  152   144   143 1
  153   145   144 1
  154   146   145 1
  155   147   146 1
  156   148   147 1
  157   149   148 1
  158   150   149 1
  159   151   150 1
  160   152   151 1
  161   153   152 1
  162   154   138 1
  163   155   138 1
  164   156   143 1
  165   157   147 1
  166   158   151 1
  167   160   159 1
  168   161   160 1
  169   162   161 1
  170   163   161 1
  171   164   163 1
  172   165   159 1
  173   165   164 1
  174   166   165 1
  175   167   166 1
  176   168   167 1
  177   169   168 1
  178   170   169 1
  179   171   170 1
  180   172   171 1
  181   173   172 1
  182   174   153 1
  183   174   173 1
  184   175   159 1
  185   176   159 1
  186   177   164 1
  187   178   168 1
  188   179   172 1
  189   180   179 1
  190   181   179 1
  191   182   179 1
  192   183   178 1
  193   184   178 1
  194   185   178 1
  195   186   177 1
  196   187   177 1
  197   188   177 1
  198   189   176 1
  199   190   176 1
  200   191   176 1
  201   192   175 1
  202   193   175 1
  203   194   175 1
  204   195   160 1
  205   196   160 1
  206   197   158 1
  207   198   158 1
  208   199   158 1
  209   200   157 1
  210   201   157 1
  211   202   157 1
  212   203   156 1
  213   204   156 1
  214   205   156 1
  215   206   155 1
  216   207   155 1
  217   208   155 1
  218   209   154 1
  219   210   154 1
  220   211   154 1
  221   212   141 1
  222   213   146 1
  223   214   145 1
  224   215   142 1
  225   216   142 1
  226   217   174 1
  227   218   173 1
  228   219   171 1
  229   220   170 1
  230   221   169 1
  231   222   140 1
  232   223   167 1
  233   224   166 1
  234   225   165 1
  235   226   163 1
  236   227   161 1
  237   228   139 1
  238   229   139 1
  239   230   153 1
  240   231   152 1
  241   232   150 1
  242   233   149 1
  243   234   148 1
  244   235   162 1
  245   65    153 1
  246   65    174 1
@<TRIPOS>SUBSTRUCTURE
      1 CLA               1 ****               0 ****  **** 
      2 LUT             138 ****               0 ****  **** 
