@<TRIPOS>MOLECULE
Cpptraj generated mol2 file.
  235   246     2     0     0
SMALL
USER_CHARGES


@<TRIPOS>ATOM
      1 CAA        76.6442   58.2910   33.5374 a2         1 CLA     -0.055900
      2 CAB        77.0540   61.5613   42.6979 c8         1 CLA     -0.148500
      3 CAC        69.9980   57.9236   42.2208 a2         1 CLA     -0.012600
      4 CAD        72.6563   55.4525   34.9018 ck         1 CLA      0.398800
      5 NA         75.7337   58.6071   36.9412 ns         1 CLA     -0.225500
      6 CBA        77.8911   58.1839   32.6460 a2         1 CLA     -0.135000
      7 CBB        78.1663   61.3021   43.4223 c0         1 CLA     -0.395200
      8 CBC        70.3827   56.6328   42.9358 a3         1 CLA     -0.037700
      9 CBD        74.0373   55.9232   34.6040 a1         1 CLA     -0.053900
     10 NB         75.5872   60.1213   39.5363 nm         1 CLA     -0.295700
     11 OBD        72.0496   54.6482   34.1819 o2         1 CLA     -0.494600
     12 CGA        78.2757   56.7045   32.3041 c4         1 CLA      0.827000
     13 CGD        74.9433   54.7426   34.4273 c4         1 CLA      0.655300
     14 ND         72.9904   57.6225   37.6560 nm         1 CLA     -0.291600
     15 CED        75.7520   52.7478   35.3528 a3         1 CLA      0.005400
     16 CHA        74.4003   57.0070   35.7036 cs         1 CLA     -0.123800
     17 CHB        77.5459   59.7794   38.0690 aa         1 CLA     -0.291900
     18 CHC        74.3439   60.3722   41.6338 aa         1 CLA     -0.090400
     19 CHD        71.2285   57.5152   39.3186 aa         1 CLA     -0.052000
     20 CMA        79.0374   57.6959   36.3573 a3         1 CLA     -0.230700
     21 CMB        78.9576   61.6649   40.2046 a3         1 CLA     -0.180800
     22 CMC        72.1032   59.8671   43.8129 a3         1 CLA     -0.134000
     23 CMD        69.9234   55.3858   37.1970 a3         1 CLA     -0.141100
     24 C1         79.3403   54.6979   33.2066 a2         1 CLA      0.023000
     25 C1A        75.5705   57.7824   35.8026 ac         1 CLA     -0.015100
     26 C1B        76.9119   60.3099   39.2222 cr         1 CLA      0.054700
     27 C1C        73.1834   59.6782   41.3856 cn         1 CLA     -0.005600
     28 C1D        71.7587   57.1192   38.0639 ap         1 CLA     -0.047300
     29 O1A        78.0405   56.0979   31.2778 o2         1 CLA     -0.610800
     30 O1D        75.8287   54.7205   33.5781 o2         1 CLA     -0.558200
     31 C2         79.7862   54.2455   34.5403 c8         1 CLA     -0.325100
     32 C2A        76.8186   57.6661   35.0200 a1         1 CLA      0.098600
     33 C2B        77.6033   61.0264   40.2759 cb         1 CLA      0.088500
     34 C2C        72.1272   59.4509   42.3363 cb         1 CLA      0.053700
     35 C2D        71.2871   56.1391   37.1202 cb         1 CLA      0.058900
     36 O2A        78.9553   56.1116   33.3443 o1         1 CLA     -0.437200
     37 O2D        74.7893   53.8607   35.4458 o1         1 CLA     -0.357600
     38 C3         80.3886   53.0668   34.7586 c5         1 CLA      0.031200
     39 C3A        77.8017   58.4935   35.9071 a1         1 CLA      0.166800
     40 C3B        76.7464   61.0617   41.3089 cb         1 CLA      0.035000
     41 C3C        71.2570   58.5653   41.7139 cb         1 CLA     -0.089900
     42 C3D        72.2682   56.0942   36.1140 cb         1 CLA     -0.035900
     43 C4         79.6034   51.8984   35.3605 a3         1 CLA     -0.053300
     44 C4A        76.9885   59.0376   37.0149 ac         1 CLA      0.001800
     45 C4B        75.4770   60.6067   40.8434 cn         1 CLA     -0.020900
     46 C4C        71.8074   58.3239   40.3521 cr         1 CLA     -0.044400
     47 C4D        73.2719   56.9641   36.5384 c6         1 CLA     -0.046000
     48 C5         81.9338   52.9386   34.4821 a2         1 CLA     -0.070400
     49 C6         82.8453   54.1295   34.6914 a2         1 CLA      0.043900
     50 C7         82.8557   54.5367   36.2632 a2         1 CLA     -0.150000
     51 C8         83.5433   55.8656   36.6640 a1         1 CLA      0.064200
     52 C9         84.9437   55.9666   36.0486 a3         1 CLA     -0.259300
     53 C10        83.5604   55.8953   38.1926 a2         1 CLA     -0.071900
     54 C11        82.2481   56.2220   38.8457 a2         1 CLA      0.014500
     55 C12        82.3943   56.4807   40.3163 a2         1 CLA     -0.112100
     56 C13        81.0632   56.8457   41.0678 a1         1 CLA      0.089200
     57 C14        80.3879   58.0841   40.5590 a3         1 CLA     -0.239100
     58 C15        81.0783   56.5466   42.6190 a2         1 CLA     -0.102200
     59 C16        81.2194   57.7009   43.6131 a2         1 CLA      0.023900
     60 C17        82.5137   58.4366   43.6214 a2         1 CLA     -0.105700
     61 C18        82.6440   59.4914   44.7480 a1         1 CLA      0.206800
     62 C19        81.3901   60.5131   44.7310 a3         1 CLA     -0.280100
     63 C20        82.9095   58.9391   46.1933 a3         1 CLA     -0.280100
     64 NC         72.9515   59.0274   40.2111 nx         1 CLA     -0.309200
     65 MG         74.1841   58.9945   38.4750 mg         1 CLA      0.895000
     66 HMD3       69.9524   54.4537   36.6289 dc         1 CLA      0.064300
     67 HMD2       69.6636   55.0478   38.2526 dc         1 CLA      0.064300
     68 HMD1       69.0709   55.9220   36.7632 dc         1 CLA      0.064300
     69 HMC3       72.4579   60.8556   44.0470 dc         1 CLA      0.052100
     70 HMC2       71.0855   59.8842   44.1644 dc         1 CLA      0.052100
     71 HMC1       72.5709   59.0656   44.3944 dc         1 CLA      0.052100
     72 HMB3       79.0657   62.3413   41.1172 dc         1 CLA      0.063600
     73 HMB2       79.6723   60.8414   40.1002 dc         1 CLA      0.063600
     74 HMB1       78.9644   62.2806   39.3139 dc         1 CLA      0.063600
     75 HMA3       78.7880   57.0054   37.2124 dc         1 CLA      0.058300
     76 HMA2       79.5174   57.1439   35.5525 dc         1 CLA      0.058300
     77 HMA1       79.8108   58.3388   36.7582 dc         1 CLA      0.058300
     78 HED3       75.5029   52.0640   36.1791 dc         1 CLA      0.079300
     79 HED2       75.6031   52.2147   34.4377 dc         1 CLA      0.079300
     80 HED1       76.7647   53.1741   35.4232 dc         1 CLA      0.079300
     81 HBC3       69.4365   56.0575   43.2451 dc         1 CLA      0.016300
     82 HBC2       70.7722   55.9739   42.2000 dc         1 CLA      0.016300
     83 HBC1       71.0303   56.7856   43.7292 dc         1 CLA      0.016300
     84 HBB2       78.3557   61.5837   44.4917 da         1 CLA      0.183000
     85 HBB1       78.9933   60.7439   42.9463 da         1 CLA      0.183000
     86 HBA2       77.6199   58.6796   31.6733 dc         1 CLA      0.029400
     87 HBA1       78.6353   58.7313   33.1177 dc         1 CLA      0.029400
     88 HAC2       69.4884   58.6907   42.8671 dc         1 CLA      0.029300
     89 HAC1       69.2634   57.7595   41.4319 dc         1 CLA      0.029300
     90 HAA2       75.7167   57.7705   33.1501 dc         1 CLA      0.028700
     91 HAA1       76.4091   59.4002   33.5916 dc         1 CLA      0.028700
     92 H203       83.8599   58.4514   46.0719 dc         1 CLA      0.065600
     93 H202       83.0107   59.8788   46.8581 dc         1 CLA      0.065600
     94 H201       82.0606   58.2170   46.3362 dc         1 CLA      0.065600
     95 H193       80.5437   60.0634   45.3180 dc         1 CLA      0.065600
     96 H192       81.7771   61.3599   45.2974 dc         1 CLA      0.065600
     97 H191       81.1315   60.9321   43.8006 dc         1 CLA      0.065600
     98 H172       83.3019   57.6705   43.8499 dc         1 CLA      0.027600
     99 H171       82.6953   58.9653   42.6488 dc         1 CLA      0.027600
    100 H162       80.4419   58.4110   43.3988 dc         1 CLA      0.002900
    101 H161       81.0114   57.2808   44.5620 dc         1 CLA      0.002900
    102 H152       80.1037   56.1743   42.8260 dc         1 CLA      0.029100
    103 H151       81.8352   55.8620   42.7814 dc         1 CLA      0.029100
    104 H143       81.1646   58.8599   40.4420 dc         1 CLA      0.063600
    105 H142       79.9340   57.8932   39.5883 dc         1 CLA      0.063600
    106 H141       79.6667   58.3851   41.3157 dc         1 CLA      0.063600
    107 H122       82.8433   55.5749   40.7660 dc         1 CLA      0.032500
    108 H121       83.1383   57.2404   40.3667 dc         1 CLA      0.032500
    109 H112       81.6767   57.1344   38.4760 dc         1 CLA      0.006600
    110 H111       81.5403   55.4279   38.6856 dc         1 CLA      0.006600
    111 H102       83.9836   55.0008   38.6028 dc         1 CLA      0.024100
    112 H101       84.2563   56.7585   38.4645 dc         1 CLA      0.024100
    113 HHD        70.2896   56.9615   39.5536 da         1 CLA      0.174300
    114 HHC        74.3876   60.6611   42.7107 da         1 CLA      0.136800
    115 HHB        78.5818   60.0224   37.8981 da         1 CLA      0.138300
    116 HBD        73.8964   56.3289   33.6158 dc         1 CLA      0.107700
    117 HAB        76.1864   62.1236   43.1310 da         1 CLA      0.155200
    118 H93        85.5842   56.7342   36.5873 dc         1 CLA      0.069500
    119 H92        85.5109   55.0846   36.1283 dc         1 CLA      0.069500
    120 H91        84.8458   56.2192   35.0197 dc         1 CLA      0.069500
    121 H8         82.7966   56.5514   36.1519 dc         1 CLA      0.029300
    122 H72        81.8959   54.3672   36.6646 dc         1 CLA      0.044400
    123 H71        83.4879   53.8160   36.6854 dc         1 CLA      0.044400
    124 H62        83.8339   53.7586   34.4886 dc         1 CLA      0.015600
    125 H61        82.4750   54.9782   34.0875 dc         1 CLA      0.015600
    126 H52        82.3112   52.2647   35.2085 dc         1 CLA      0.033200
    127 H51        82.1261   52.5949   33.4285 dc         1 CLA      0.033200
    128 H43        78.9189   52.2615   36.0763 dc         1 CLA      0.037000
    129 H42        78.9444   51.4376   34.5275 dc         1 CLA      0.037000
    130 H41        80.2845   51.1148   35.6370 dc         1 CLA      0.037000
    131 H3A        78.0826   59.3410   35.3799 dc         1 CLA      0.041100
    132 H2A        77.0904   56.6214   35.0285 dc         1 CLA      0.083100
    133 H2         79.9011   54.8195   35.4266 da         1 CLA      0.180900
    134 H18        83.5767   60.0773   44.5208 dc         1 CLA     -0.003900
    135 H13        80.5030   56.0736   40.5254 dc         1 CLA      0.019700
    136 H12        78.4342   54.0817   32.9518 dc         1 CLA      0.120400
    137 H11        80.0922   54.5836   32.4200 dc         1 CLA      0.120400
    138 C1         66.7103   61.7925   49.8246 Z1         2 LUT      0.509236
    139 C2         67.0422   63.0845   50.6434 Z2         2 LUT     -0.434695
    140 C3         65.7665   63.9191   50.6962 Z3         2 LUT      0.437453
    141 O3         66.1598   65.2459   51.0339 S1         2 LUT     -0.547129
    142 C4         64.8762   63.8582   49.4320 Z4         2 LUT     -0.468603
    143 C5         65.5567   63.3419   48.2150 Z5         2 LUT      0.279246
    144 C6         66.3937   62.2402   48.2994 Z6         2 LUT     -0.305473
    145 C7         67.1500   61.6633   47.1889 Z7         2 LUT      0.069402
    146 C8         67.8700   62.4109   46.2903 Z8         2 LUT     -0.191631
    147 C9         68.3755   62.0655   44.9663 Z9         2 LUT      0.196698
    148 C10        69.3051   62.8853   44.3325 Y1         2 LUT     -0.208611
    149 C11        69.8990   62.8849   43.0037 Y2         2 LUT      0.030784
    150 C12        71.1029   63.4494   42.7723 Y3         2 LUT     -0.220316
    151 C13        71.9549   63.4849   41.5750 Y4         2 LUT      0.215937
    152 C14        73.2504   63.9264   41.6082 Y5         2 LUT     -0.185793
    153 C15        74.2918   64.0665   40.5884 Y6         2 LUT     -0.057835
    154 C16        65.7642   60.7630   50.4917 Y7         2 LUT     -0.405615
    155 C17        68.0557   61.0314   49.7517 Y7         2 LUT     -0.405615
    156 C18        65.2276   64.1237   46.9822 Y9         2 LUT     -0.369639
    157 C19        67.7010   60.8470   44.2795 W1         2 LUT     -0.333362
    158 C20        71.2651   62.7282   40.4059 W2         2 LUT     -0.323439
    159 C21        85.1845   64.9539   34.4369 Z1         2 LUT      0.406104
    160 C22        85.7507   64.0743   33.2692 Z2         2 LUT     -0.404965
    161 C23        85.9795   64.7413   31.9383 Z3         2 LUT      0.391255
    162 O23        86.1624   63.6904   31.0038 S1         2 LUT     -0.528210
    163 C24        84.8795   65.7034   31.5778 W6         2 LUT     -0.258361
    164 C25        83.9704   66.1984   32.3536 Z5         2 LUT      0.133546
    165 C26        83.8246   65.6409   33.8190 W8         2 LUT     -0.147008
    166 C27        83.1554   66.5376   34.8049 Z7         2 LUT      0.023843
    167 C28        82.1100   66.1392   35.5467 Z8         2 LUT     -0.216987
    168 C29        81.7873   66.6053   36.8413 Z9         2 LUT      0.206524
    169 C30        80.6009   66.0647   37.3994 Y1         2 LUT     -0.215556
    170 C31        79.8390   66.1545   38.5949 Y2         2 LUT      0.025142
    171 C32        78.6562   65.5045   38.8813 Y3         2 LUT     -0.212209
    172 C33        77.8240   65.3433   40.0424 Y4         2 LUT      0.240937
    173 C34        76.6502   64.6133   39.8886 Y5         2 LUT     -0.218862
    174 C35        75.6026   64.4169   40.8757 Y6         2 LUT     -0.023547
    175 C36        86.2726   66.0370   34.8213 Y7         2 LUT     -0.393485
    176 C37        84.9154   64.0610   35.7001 Y7         2 LUT     -0.393485
    177 C38        82.8457   67.0347   31.9698 Y9         2 LUT     -0.387526
    178 C39        82.6086   67.4606   37.7630 W1         2 LUT     -0.322618
    179 C40        78.5131   65.8019   41.3112 W2         2 LUT     -0.358472
    180 H403       78.3606   66.7852   41.6449 R7         2 LUT      0.097720
    181 H402       78.2748   65.0775   42.0747 R7         2 LUT      0.097720
    182 H401       79.5713   65.7073   41.2485 R7         2 LUT      0.097720
    183 H393       83.4131   67.9341   37.1548 R4         2 LUT      0.082505
    184 H392       82.1308   68.2449   38.3214 R4         2 LUT      0.082505
    185 H391       83.1165   66.7857   38.4816 R4         2 LUT      0.082505
    186 H383       82.0577   66.3121   31.5303 R1         2 LUT      0.104030
    187 H382       82.3482   67.6120   32.7688 R1         2 LUT      0.104030
    188 H381       83.1942   67.6306   31.0946 R1         2 LUT      0.104030
    189 H373       84.8212   64.6634   36.6128 T4         2 LUT      0.089537
    190 H372       84.0106   63.4323   35.6422 T4         2 LUT      0.089537
    191 H371       85.7880   63.3728   35.9979 T4         2 LUT      0.089537
    192 H363       86.4982   66.7598   34.0471 T4         2 LUT      0.089537
    193 H362       86.0215   66.5149   35.7758 T4         2 LUT      0.089537
    194 H361       87.2455   65.5673   34.9510 T4         2 LUT      0.089537
    195 H222       86.7096   63.6025   33.5233 U2         2 LUT      0.127376
    196 H221       85.0807   63.2969   32.9498 U2         2 LUT      0.127376
    197 H203       71.0615   61.6609   40.5428 R7         2 LUT      0.087068
    198 H202       70.3234   63.1751   39.9836 R7         2 LUT      0.087068
    199 H201       71.8597   62.7334   39.4866 R7         2 LUT      0.087068
    200 H193       66.6892   61.1381   43.9905 R4         2 LUT      0.089716
    201 H192       68.2120   60.4673   43.4004 R4         2 LUT      0.089716
    202 H191       67.6209   59.9668   44.9011 R4         2 LUT      0.089716
    203 H183       65.9726   64.9262   47.0146 R1         2 LUT      0.094572
    204 H182       65.4376   63.4363   46.0779 R1         2 LUT      0.094572
    205 H181       64.2570   64.4806   46.9111 R1         2 LUT      0.094572
    206 H173       68.9360   61.4802   49.2291 T4         2 LUT      0.093752
    207 H172       68.3667   60.7593   50.7019 T4         2 LUT      0.093752
    208 H171       68.0203   60.0617   49.2658 T4         2 LUT      0.093752
    209 H163       66.1620   60.4244   51.4485 T4         2 LUT      0.093752
    210 H162       64.7567   61.1887   50.6371 T4         2 LUT      0.093752
    211 H161       65.6449   59.7741   50.0032 T4         2 LUT      0.093752
    212 HO3        65.4477   65.5591   51.6288 Q1         2 LUT      0.300121
    213 H8         68.0284   63.4437   46.6167 U7         2 LUT      0.080784
    214 H7         66.9586   60.6336   46.9480 U6         2 LUT      0.042190
    215 H42        63.9110   63.2969   49.6741 U5         2 LUT      0.145166
    216 H41        64.4448   64.8828   49.2475 U5         2 LUT      0.145166
    217 H35        75.6897   64.7154   41.9614 T3         2 LUT      0.077919
    218 H34        76.4588   64.1601   38.9006 T2         2 LUT      0.073626
    219 H32        78.2677   65.0716   37.9821 T1         2 LUT      0.092510
    220 H31        80.4396   66.7420   39.2651 U9         2 LUT      0.070048
    221 H30        80.1571   65.3855   36.6803 U8         2 LUT      0.085442
    222 H3         65.1921   63.4314   51.5613 U3         2 LUT     -0.031596
    223 H28        81.4160   65.4376   35.1399 U7         2 LUT      0.084728
    224 H27        83.8260   67.2492   35.2406 U6         2 LUT      0.087291
    225 H26        83.1608   64.8346   33.5470 Q6         2 LUT      0.075325
    226 H24        84.8302   65.9795   30.5576 Q5         2 LUT      0.094482
    227 H23        86.9136   65.3738   32.1239 U3         2 LUT     -0.024869
    228 H22        67.2861   62.7849   51.6204 U2         2 LUT      0.127376
    229 H21        67.8272   63.5855   50.0509 U2         2 LUT      0.127376
    230 H15        74.1497   63.7175   39.5317 T3         2 LUT      0.093200
    231 H14        73.5446   64.2485   42.5913 T2         2 LUT      0.068865
    232 H12        71.5123   63.9027   43.6363 T1         2 LUT      0.095507
    233 H11        69.4542   62.2971   42.1861 U9         2 LUT      0.068930
    234 H10        69.7308   63.7062   44.9050 U8         2 LUT      0.083911
    235 H1         86.5911   63.9819   30.2234 Q1         2 LUT      0.297311
@<TRIPOS>BOND
    1     6     1 1
    2     7     2 1
    3     8     3 1
    4     9     4 1
    5    11     4 1
    6    12     6 1
    7    13     9 1
    8    16     9 1
    9    25     5 1
   10    25    16 1
   11    26    10 1
   12    26    17 1
   13    27    18 1
   14    28    14 1
   15    28    19 1
   16    29    12 1
   17    30    13 1
   18    31    24 1
   19    32     1 1
   20    32    25 1
   21    33    21 1
   22    33    26 1
   23    34    22 1
   24    34    27 1
   25    35    23 1
   26    35    28 1
   27    36    12 1
   28    36    24 1
   29    37    13 1
   30    37    15 1
   31    38    31 1
   32    39    20 1
   33    39    32 1
   34    40     2 1
   35    40    33 1
   36    41     3 1
   37    41    34 1
   38    42     4 1
   39    42    35 1
   40    43    38 1
   41    44     5 1
   42    44    17 1
   43    44    39 1
   44    45    10 1
   45    45    18 1
   46    45    40 1
   47    46    19 1
   48    46    41 1
   49    47    14 1
   50    47    16 1
   51    47    42 1
   52    48    38 1
   53    49    48 1
   54    50    49 1
   55    51    50 1
   56    52    51 1
   57    53    51 1
   58    54    53 1
   59    55    54 1
   60    56    55 1
   61    57    56 1
   62    58    56 1
   63    59    58 1
   64    60    59 1
   65    61    60 1
   66    62    61 1
   67    63    61 1
   68    64    27 1
   69    64    46 1
   70    65     5 1
   71    65    10 1
   72    65    64 1
   73    65    14 1
   74    66    23 1
   75    67    23 1
   76    68    23 1
   77    69    22 1
   78    70    22 1
   79    71    22 1
   80    72    21 1
   81    73    21 1
   82    74    21 1
   83    75    20 1
   84    76    20 1
   85    77    20 1
   86    78    15 1
   87    79    15 1
   88    80    15 1
   89    81     8 1
   90    82     8 1
   91    83     8 1
   92    84     7 1
   93    85     7 1
   94    86     6 1
   95    87     6 1
   96    88     3 1
   97    89     3 1
   98    90     1 1
   99    91     1 1
  100    92    63 1
  101    93    63 1
  102    94    63 1
  103    95    62 1
  104    96    62 1
  105    97    62 1
  106    98    60 1
  107    99    60 1
  108   100    59 1
  109   101    59 1
  110   102    58 1
  111   103    58 1
  112   104    57 1
  113   105    57 1
  114   106    57 1
  115   107    55 1
  116   108    55 1
  117   109    54 1
  118   110    54 1
  119   111    53 1
  120   112    53 1
  121   113    19 1
  122   114    18 1
  123   115    17 1
  124   116     9 1
  125   117     2 1
  126   118    52 1
  127   119    52 1
  128   120    52 1
  129   121    51 1
  130   122    50 1
  131   123    50 1
  132   124    49 1
  133   125    49 1
  134   126    48 1
  135   127    48 1
  136   128    43 1
  137   129    43 1
  138   130    43 1
  139   131    39 1
  140   132    32 1
  141   133    31 1
  142   134    61 1
  143   135    56 1
  144   136    24 1
  145   137    24 1
  146   139   138 1
  147   140   139 1
  148   141   140 1
  149   142   140 1
  150   143   142 1
  151   144   138 1
  152   144   143 1
  153   145   144 1
  154   146   145 1
  155   147   146 1
  156   148   147 1
  157   149   148 1
  158   150   149 1
  159   151   150 1
  160   152   151 1
  161   153   152 1
  162   154   138 1
  163   155   138 1
  164   156   143 1
  165   157   147 1
  166   158   151 1
  167   160   159 1
  168   161   160 1
  169   162   161 1
  170   163   161 1
  171   164   163 1
  172   165   159 1
  173   165   164 1
  174   166   165 1
  175   167   166 1
  176   168   167 1
  177   169   168 1
  178   170   169 1
  179   171   170 1
  180   172   171 1
  181   173   172 1
  182   174   153 1
  183   174   173 1
  184   175   159 1
  185   176   159 1
  186   177   164 1
  187   178   168 1
  188   179   172 1
  189   180   179 1
  190   181   179 1
  191   182   179 1
  192   183   178 1
  193   184   178 1
  194   185   178 1
  195   186   177 1
  196   187   177 1
  197   188   177 1
  198   189   176 1
  199   190   176 1
  200   191   176 1
  201   192   175 1
  202   193   175 1
  203   194   175 1
  204   195   160 1
  205   196   160 1
  206   197   158 1
  207   198   158 1
  208   199   158 1
  209   200   157 1
  210   201   157 1
  211   202   157 1
  212   203   156 1
  213   204   156 1
  214   205   156 1
  215   206   155 1
  216   207   155 1
  217   208   155 1
  218   209   154 1
  219   210   154 1
  220   211   154 1
  221   212   141 1
  222   213   146 1
  223   214   145 1
  224   215   142 1
  225   216   142 1
  226   217   174 1
  227   218   173 1
  228   219   171 1
  229   220   170 1
  230   221   169 1
  231   222   140 1
  232   223   167 1
  233   224   166 1
  234   225   165 1
  235   226   163 1
  236   227   161 1
  237   228   139 1
  238   229   139 1
  239   230   153 1
  240   231   152 1
  241   232   150 1
  242   233   149 1
  243   234   148 1
  244   235   162 1
  245   65    153 1
  246   65    174 1
@<TRIPOS>SUBSTRUCTURE
      1 CLA               1 ****               0 ****  **** 
      2 LUT             138 ****               0 ****  **** 
