@<TRIPOS>MOLECULE
Cpptraj generated mol2 file.
  235   246     2     0     0
SMALL
USER_CHARGES


@<TRIPOS>ATOM
      1 CAA        78.8458   57.5687   35.5153 a2         1 CLA     -0.055900
      2 CAB        78.0983   61.7650   44.1902 c8         1 CLA     -0.148500
      3 CAC        71.4424   57.1516   43.3035 a2         1 CLA     -0.012600
      4 CAD        74.6764   54.8272   36.2411 ck         1 CLA      0.398800
      5 NA         77.4710   58.0424   38.7244 ns         1 CLA     -0.225500
      6 CBA        80.1109   57.4745   34.7559 a2         1 CLA     -0.135000
      7 CBB        79.2297   61.5208   44.9182 c0         1 CLA     -0.395200
      8 CBC        71.6234   55.6270   43.2476 a3         1 CLA     -0.037700
      9 CBD        76.1393   55.5323   35.9757 a1         1 CLA     -0.053900
     10 NB         77.2212   59.5728   41.2245 nm         1 CLA     -0.295700
     11 OBD        74.1769   53.9488   35.5274 o2         1 CLA     -0.494600
     12 CGA        80.7457   56.1075   34.3842 c4         1 CLA      0.827000
     13 CGD        77.1892   54.5386   35.5736 c4         1 CLA      0.655300
     14 ND         74.7686   56.9536   39.0853 nm         1 CLA     -0.291600
     15 CED        77.9290   52.3571   36.2244 a3         1 CLA      0.005400
     16 CHA        76.3733   56.4400   37.2234 cs         1 CLA     -0.123800
     17 CHB        79.1427   59.5670   39.7156 aa         1 CLA     -0.291900
     18 CHC        75.6965   59.9568   43.1252 aa         1 CLA     -0.090400
     19 CHD        72.8387   56.9779   40.5739 aa         1 CLA     -0.052000
     20 CMA        80.9258   57.6192   38.3935 a3         1 CLA     -0.230700
     21 CMB        80.3868   61.6051   41.7315 a3         1 CLA     -0.180800
     22 CMC        73.2443   59.3445   45.0042 a3         1 CLA     -0.134000
     23 CMD        71.6460   54.9126   38.3082 a3         1 CLA     -0.141100
     24 C1         81.2732   53.8061   34.9854 a2         1 CLA      0.023000
     25 C1A        77.4892   57.2261   37.6503 ac         1 CLA     -0.015100
     26 C1B        78.4883   60.0498   40.8114 cr         1 CLA      0.054700
     27 C1C        74.6622   59.0330   42.7931 cn         1 CLA     -0.005600
     28 C1D        73.4606   56.5340   39.3642 ap         1 CLA     -0.047300
     29 O1A        80.9408   55.7768   33.2449 o2         1 CLA     -0.610800
     30 O1D        77.8376   54.5281   34.5514 o2         1 CLA     -0.558200
     31 C2         81.6501   53.0315   36.2569 c8         1 CLA     -0.325100
     32 C2A        78.7929   57.2307   36.9402 a1         1 CLA      0.098600
     33 C2B        79.0284   61.0013   41.8018 cb         1 CLA      0.088500
     34 C2C        73.4487   58.7607   43.5938 cb         1 CLA      0.053700
     35 C2D        73.0452   55.5734   38.3237 cb         1 CLA      0.058900
     36 O2A        80.9118   55.2129   35.4211 o1         1 CLA     -0.437200
     37 O2D        77.3013   53.6578   36.5834 o1         1 CLA     -0.357600
     38 C3         82.7910   53.0659   37.0207 c5         1 CLA      0.031200
     39 C3A        79.5896   58.1962   37.7436 a1         1 CLA      0.166800
     40 C3B        78.0569   61.0724   42.8585 cb         1 CLA      0.035000
     41 C3C        72.6616   57.9195   42.8194 cb         1 CLA     -0.089900
     42 C3D        74.1594   55.4601   37.3973 cb         1 CLA     -0.035900
     43 C4         84.0785   52.3421   36.6625 a3         1 CLA     -0.053300
     44 C4A        78.6978   58.5926   38.8215 ac         1 CLA      0.001800
     45 C4B        76.8713   60.2627   42.4056 cn         1 CLA     -0.020900
     46 C4C        73.3113   57.7361   41.6320 cr         1 CLA     -0.044400
     47 C4D        75.1204   56.3995   37.9234 c6         1 CLA     -0.046000
     48 C5         82.7570   54.1106   38.1876 a2         1 CLA     -0.070400
     49 C6         83.9020   55.0688   38.2296 a2         1 CLA      0.043900
     50 C7         84.0898   55.5777   39.6592 a2         1 CLA     -0.150000
     51 C8         85.0176   56.6903   39.9045 a1         1 CLA      0.064200
     52 C9         86.4337   56.4253   39.5567 a3         1 CLA     -0.259300
     53 C10        84.9458   57.2879   41.3726 a2         1 CLA     -0.071900
     54 C11        83.5115   57.7264   41.8741 a2         1 CLA      0.014500
     55 C12        83.5688   58.6003   43.1394 a2         1 CLA     -0.112100
     56 C13        84.3627   58.1658   44.3636 a1         1 CLA      0.089200
     57 C14        83.8336   56.8822   44.9691 a3         1 CLA     -0.239100
     58 C15        84.6153   59.3648   45.3102 a2         1 CLA     -0.102200
     59 C16        83.3606   59.9596   45.9037 a2         1 CLA      0.023900
     60 C17        83.7251   61.0426   46.9327 a2         1 CLA     -0.105700
     61 C18        82.5267   61.8327   47.4528 a1         1 CLA      0.206800
     62 C19        81.7851   61.1098   48.5893 a3         1 CLA     -0.280100
     63 C20        82.8827   63.2649   47.8976 a3         1 CLA     -0.280100
     64 NC         74.5184   58.3596   41.6379 nx         1 CLA     -0.309200
     65 MG         75.9387   58.2814   40.0579 mg         1 CLA      0.895000
     66 HMD3       71.6802   54.1604   37.5416 dc         1 CLA      0.064300
     67 HMD2       71.3086   54.4635   39.2504 dc         1 CLA      0.064300
     68 HMD1       70.9262   55.8129   38.1293 dc         1 CLA      0.064300
     69 HMC3       74.1875   59.5179   45.4542 dc         1 CLA      0.052100
     70 HMC2       72.6400   60.2422   45.0159 dc         1 CLA      0.052100
     71 HMC1       72.8156   58.6520   45.7036 dc         1 CLA      0.052100
     72 HMB3       80.1286   62.4471   42.2248 dc         1 CLA      0.063600
     73 HMB2       81.0293   61.0882   42.3981 dc         1 CLA      0.063600
     74 HMB1       80.7853   61.7477   40.7086 dc         1 CLA      0.063600
     75 HMA3       80.8045   56.6085   38.7463 dc         1 CLA      0.058300
     76 HMA2       81.5159   57.4331   37.5178 dc         1 CLA      0.058300
     77 HMA1       81.5000   58.2457   39.1805 dc         1 CLA      0.058300
     78 HED3       78.9537   52.4913   35.7957 dc         1 CLA      0.079300
     79 HED2       77.9594   51.8526   37.1722 dc         1 CLA      0.079300
     80 HED1       77.2718   51.8213   35.5644 dc         1 CLA      0.079300
     81 HBC3       70.8448   55.1402   43.8002 dc         1 CLA      0.016300
     82 HBC2       71.6358   55.1670   42.2718 dc         1 CLA      0.016300
     83 HBC1       72.4436   55.3970   43.9471 dc         1 CLA      0.016300
     84 HBB2       79.3206   62.0555   45.9017 da         1 CLA      0.183000
     85 HBB1       80.0275   60.7931   44.6895 da         1 CLA      0.183000
     86 HBA2       79.8891   57.9895   33.8217 dc         1 CLA      0.029400
     87 HBA1       80.8293   58.0820   35.2216 dc         1 CLA      0.029400
     88 HAC2       71.1841   57.4957   44.2888 dc         1 CLA      0.029300
     89 HAC1       70.6011   57.2874   42.6672 dc         1 CLA      0.029300
     90 HAA2       78.1175   56.9809   34.8983 dc         1 CLA      0.028700
     91 HAA1       78.4607   58.5709   35.4986 dc         1 CLA      0.028700
     92 H203       83.5618   63.2721   48.7636 dc         1 CLA      0.065600
     93 H202       83.3478   63.7245   47.0420 dc         1 CLA      0.065600
     94 H201       81.9957   63.8561   48.1610 dc         1 CLA      0.065600
     95 H193       81.3487   60.1960   48.1191 dc         1 CLA      0.065600
     96 H192       82.4611   60.8706   49.3696 dc         1 CLA      0.065600
     97 H191       80.9545   61.7303   48.9343 dc         1 CLA      0.065600
     98 H172       84.3244   60.7273   47.7826 dc         1 CLA      0.027600
     99 H171       84.2817   61.7567   46.3423 dc         1 CLA      0.027600
    100 H162       82.8793   60.6102   45.1909 dc         1 CLA      0.002900
    101 H161       82.7627   59.1582   46.3459 dc         1 CLA      0.002900
    102 H152       85.1246   59.0004   46.2312 dc         1 CLA      0.029100
    103 H151       85.1665   60.0820   44.7374 dc         1 CLA      0.029100
    104 H143       84.3874   56.5718   45.8833 dc         1 CLA      0.063600
    105 H142       82.7975   56.9717   45.3640 dc         1 CLA      0.063600
    106 H141       83.8293   56.0637   44.2207 dc         1 CLA      0.063600
    107 H122       83.9247   59.5901   42.8695 dc         1 CLA      0.032500
    108 H121       82.5679   58.7830   43.5396 dc         1 CLA      0.032500
    109 H112       83.1042   58.3218   41.0387 dc         1 CLA      0.006600
    110 H111       82.9258   56.8472   42.0233 dc         1 CLA      0.006600
    111 H102       85.1617   56.5825   42.2213 dc         1 CLA      0.024100
    112 H101       85.6332   58.1261   41.4489 dc         1 CLA      0.024100
    113 HHD        71.7874   56.6719   40.6557 da         1 CLA      0.174300
    114 HHC        75.6697   60.5154   44.0527 da         1 CLA      0.136800
    115 HHB        80.1850   59.8707   39.5858 da         1 CLA      0.138300
    116 HBD        75.9328   56.1139   35.1017 dc         1 CLA      0.107700
    117 HAB        77.3117   62.3957   44.6830 da         1 CLA      0.155200
    118 H93        86.5868   55.8892   38.6040 dc         1 CLA      0.069500
    119 H92        86.9855   57.3447   39.4803 dc         1 CLA      0.069500
    120 H91        86.7556   55.7858   40.3544 dc         1 CLA      0.069500
    121 H8         84.8079   57.5599   39.2757 dc         1 CLA      0.029300
    122 H72        83.1269   55.8566   39.9812 dc         1 CLA      0.044400
    123 H71        84.4932   54.7277   40.3013 dc         1 CLA      0.044400
    124 H62        84.8048   54.6058   37.8787 dc         1 CLA      0.015600
    125 H61        83.7969   55.9421   37.5381 dc         1 CLA      0.015600
    126 H52        81.8406   54.6983   38.2436 dc         1 CLA      0.033200
    127 H51        82.8147   53.5111   39.0517 dc         1 CLA      0.033200
    128 H43        83.9146   51.5468   35.8982 dc         1 CLA      0.037000
    129 H42        84.9573   52.9543   36.3726 dc         1 CLA      0.037000
    130 H41        84.3413   51.7332   37.4668 dc         1 CLA      0.037000
    131 H3A        79.8362   59.1183   37.1553 dc         1 CLA      0.041100
    132 H2A        79.1954   56.2239   37.0437 dc         1 CLA      0.083100
    133 H2         80.9523   52.2545   36.5587 da         1 CLA      0.180900
    134 H18        81.8940   61.9005   46.6108 dc         1 CLA     -0.003900
    135 H13        85.3890   57.9745   44.1600 dc         1 CLA      0.019700
    136 H12        80.3791   53.2808   34.6318 dc         1 CLA      0.120400
    137 H11        82.0862   53.7268   34.2807 dc         1 CLA      0.120400
    138 C1         68.4536   61.1273   50.0229 Z1         2 LUT      0.509236
    139 C2         67.0946   60.7777   50.7253 Z2         2 LUT     -0.434695
    140 C3         66.1262   61.9168   51.0932 Z3         2 LUT      0.437453
    141 O3         66.1786   62.3320   52.4850 S1         2 LUT     -0.547129
    142 C4         66.3324   63.0843   50.1128 Z4         2 LUT     -0.468603
    143 C5         67.0537   62.8144   48.7936 Z5         2 LUT      0.279246
    144 C6         68.0984   61.9526   48.6805 Z6         2 LUT     -0.305473
    145 C7         68.4515   61.3256   47.3685 Z7         2 LUT      0.069402
    146 C8         69.2652   61.8292   46.4245 Z8         2 LUT     -0.191631
    147 C9         69.7272   61.2458   45.1649 Z9         2 LUT      0.196698
    148 C10        70.6895   61.9875   44.5955 Y1         2 LUT     -0.208611
    149 C11        71.4241   61.8020   43.3628 Y2         2 LUT      0.030784
    150 C12        72.4678   62.5864   42.9921 Y3         2 LUT     -0.220316
    151 C13        73.2679   62.3502   41.8026 Y4         2 LUT      0.215937
    152 C14        74.3737   63.1553   41.6431 Y5         2 LUT     -0.185793
    153 C15        75.5975   63.0912   40.8486 Y6         2 LUT     -0.057835
    154 C16        69.2552   59.7967   49.7739 Y7         2 LUT     -0.405615
    155 C17        69.2063   62.0947   51.0004 Y7         2 LUT     -0.405615
    156 C18        66.5303   63.6148   47.6090 Y9         2 LUT     -0.369639
    157 C19        69.1157   59.9916   44.5540 W1         2 LUT     -0.333362
    158 C20        72.6362   61.4284   40.7469 W2         2 LUT     -0.323439
    159 C21        87.1101   64.5803   35.2433 Z1         2 LUT      0.406104
    160 C22        87.8702   64.0774   34.0105 Z2         2 LUT     -0.404965
    161 C23        87.9450   65.0518   32.9079 Z3         2 LUT      0.391255
    162 O23        88.9061   64.5131   31.9145 S1         2 LUT     -0.528210
    163 C24        86.6256   65.5746   32.4812 W6         2 LUT     -0.258361
    164 C25        85.5343   65.6224   33.3127 Z5         2 LUT      0.133546
    165 C26        85.7143   65.0518   34.7305 W8         2 LUT     -0.147008
    166 C27        84.8613   65.7148   35.7827 Z7         2 LUT      0.023843
    167 C28        83.8302   65.1367   36.4752 Z8         2 LUT     -0.216987
    168 C29        83.0986   65.6513   37.6648 Z9         2 LUT      0.206524
    169 C30        82.0048   64.8833   38.0836 Y1         2 LUT     -0.215556
    170 C31        81.2310   65.0085   39.2291 Y2         2 LUT      0.025142
    171 C32        80.1743   64.1863   39.4686 Y3         2 LUT     -0.212209
    172 C33        79.1133   64.4387   40.4031 Y4         2 LUT      0.240937
    173 C34        77.9337   63.7506   40.3196 Y5         2 LUT     -0.218862
    174 C35        76.7316   63.8728   41.0199 Y6         2 LUT     -0.023547
    175 C36        87.8131   65.5944   36.1013 Y7         2 LUT     -0.393485
    176 C37        87.0006   63.3557   36.1679 Y7         2 LUT     -0.393485
    177 C38        84.1863   66.1025   32.8624 Y9         2 LUT     -0.387526
    178 C39        83.7043   66.7289   38.4379 W1         2 LUT     -0.322618
    179 C40        79.3590   65.4609   41.3903 W2         2 LUT     -0.358472
    180 H403       78.9096   66.4194   40.9635 R7         2 LUT      0.097720
    181 H402       78.7493   65.2913   42.3265 R7         2 LUT      0.097720
    182 H401       80.3713   65.6664   41.6808 R7         2 LUT      0.097720
    183 H393       84.3594   67.4480   37.8951 R4         2 LUT      0.082505
    184 H392       82.8767   67.4129   38.8890 R4         2 LUT      0.082505
    185 H391       84.2211   66.3123   39.3008 R4         2 LUT      0.082505
    186 H383       84.1451   66.3675   31.8538 R1         2 LUT      0.104030
    187 H382       83.4099   65.2869   33.0438 R1         2 LUT      0.104030
    188 H381       83.8251   66.8728   33.4754 R1         2 LUT      0.104030
    189 H373       88.0636   63.0402   36.4044 T4         2 LUT      0.089537
    190 H372       86.3941   63.6299   37.0403 T4         2 LUT      0.089537
    191 H371       86.5618   62.5362   35.6455 T4         2 LUT      0.089537
    192 H363       88.9181   65.4425   36.2560 T4         2 LUT      0.089537
    193 H362       87.6499   66.6385   35.6548 T4         2 LUT      0.089537
    194 H361       87.4014   65.6509   37.1179 T4         2 LUT      0.089537
    195 H222       88.8800   63.8277   34.4172 U2         2 LUT      0.127376
    196 H221       87.3174   63.1427   33.6022 U2         2 LUT      0.127376
    197 H203       72.9521   61.5162   39.7485 R7         2 LUT      0.087068
    198 H202       72.7981   60.3942   40.9690 R7         2 LUT      0.087068
    199 H201       71.5320   61.4601   40.7246 R7         2 LUT      0.087068
    200 H193       69.5887   59.7083   43.6003 R4         2 LUT      0.089716
    201 H192       69.1590   59.1435   45.2688 R4         2 LUT      0.089716
    202 H191       68.0409   60.0892   44.4171 R4         2 LUT      0.089716
    203 H183       66.3265   62.9117   46.7196 R1         2 LUT      0.094572
    204 H182       65.6303   64.1306   47.9228 R1         2 LUT      0.094572
    205 H181       67.1931   64.4186   47.3425 R1         2 LUT      0.094572
    206 H173       68.7535   63.1030   51.1348 T4         2 LUT      0.093752
    207 H172       69.3055   61.5843   51.9512 T4         2 LUT      0.093752
    208 H171       70.2186   62.2386   50.6222 T4         2 LUT      0.093752
    209 H163       69.4982   59.3314   50.7536 T4         2 LUT      0.093752
    210 H162       68.6974   58.9911   49.2054 T4         2 LUT      0.093752
    211 H161       70.2352   59.9702   49.2947 T4         2 LUT      0.093752
    212 HO3        66.5214   61.7273   53.1597 Q1         2 LUT      0.300121
    213 H8         69.7061   62.8593   46.6785 U7         2 LUT      0.080784
    214 H7         68.0348   60.3115   47.3072 U6         2 LUT      0.042190
    215 H42        65.3035   63.4245   49.9587 U5         2 LUT      0.145166
    216 H41        66.7203   63.9677   50.6853 U5         2 LUT      0.145166
    217 H35        76.6367   64.7029   41.7847 T3         2 LUT      0.077919
    218 H34        77.8130   63.0306   39.4841 T2         2 LUT      0.073626
    219 H32        79.9333   63.4026   38.7408 T1         2 LUT      0.092510
    220 H31        81.3591   65.7736   39.9977 U9         2 LUT      0.070048
    221 H30        81.6654   64.0643   37.4641 U8         2 LUT      0.085442
    222 H3         65.0894   61.5110   51.0621 U3         2 LUT     -0.031596
    223 H28        83.5124   64.1388   36.1092 U7         2 LUT      0.084728
    224 H27        85.2903   66.6429   36.1200 U6         2 LUT      0.087291
    225 H26        85.2381   64.1244   34.5850 Q6         2 LUT      0.075325
    226 H24        86.5427   66.0436   31.4829 Q5         2 LUT      0.094482
    227 H23        88.3847   66.0568   33.2378 U3         2 LUT     -0.024869
    228 H22        66.4976   60.2903   50.0032 U2         2 LUT      0.127376
    229 H21        67.1796   59.9510   51.4420 U2         2 LUT      0.127376
    230 H15        75.7019   62.3257   40.1141 T3         2 LUT      0.093200
    231 H14        74.5738   63.9632   42.3279 T2         2 LUT      0.068865
    232 H12        72.7461   63.4167   43.6570 T1         2 LUT      0.095507
    233 H11        71.1556   60.8851   42.7550 U9         2 LUT      0.068930
    234 H10        70.9792   62.9136   45.1416 U8         2 LUT      0.083911
    235 H1         88.4808   64.2091   31.0967 Q1         2 LUT      0.297311
@<TRIPOS>BOND
    1     6     1 1
    2     7     2 1
    3     8     3 1
    4     9     4 1
    5    11     4 1
    6    12     6 1
    7    13     9 1
    8    16     9 1
    9    25     5 1
   10    25    16 1
   11    26    10 1
   12    26    17 1
   13    27    18 1
   14    28    14 1
   15    28    19 1
   16    29    12 1
   17    30    13 1
   18    31    24 1
   19    32     1 1
   20    32    25 1
   21    33    21 1
   22    33    26 1
   23    34    22 1
   24    34    27 1
   25    35    23 1
   26    35    28 1
   27    36    12 1
   28    36    24 1
   29    37    13 1
   30    37    15 1
   31    38    31 1
   32    39    20 1
   33    39    32 1
   34    40     2 1
   35    40    33 1
   36    41     3 1
   37    41    34 1
   38    42     4 1
   39    42    35 1
   40    43    38 1
   41    44     5 1
   42    44    17 1
   43    44    39 1
   44    45    10 1
   45    45    18 1
   46    45    40 1
   47    46    19 1
   48    46    41 1
   49    47    14 1
   50    47    16 1
   51    47    42 1
   52    48    38 1
   53    49    48 1
   54    50    49 1
   55    51    50 1
   56    52    51 1
   57    53    51 1
   58    54    53 1
   59    55    54 1
   60    56    55 1
   61    57    56 1
   62    58    56 1
   63    59    58 1
   64    60    59 1
   65    61    60 1
   66    62    61 1
   67    63    61 1
   68    64    27 1
   69    64    46 1
   70    65     5 1
   71    65    10 1
   72    65    64 1
   73    65    14 1
   74    66    23 1
   75    67    23 1
   76    68    23 1
   77    69    22 1
   78    70    22 1
   79    71    22 1
   80    72    21 1
   81    73    21 1
   82    74    21 1
   83    75    20 1
   84    76    20 1
   85    77    20 1
   86    78    15 1
   87    79    15 1
   88    80    15 1
   89    81     8 1
   90    82     8 1
   91    83     8 1
   92    84     7 1
   93    85     7 1
   94    86     6 1
   95    87     6 1
   96    88     3 1
   97    89     3 1
   98    90     1 1
   99    91     1 1
  100    92    63 1
  101    93    63 1
  102    94    63 1
  103    95    62 1
  104    96    62 1
  105    97    62 1
  106    98    60 1
  107    99    60 1
  108   100    59 1
  109   101    59 1
  110   102    58 1
  111   103    58 1
  112   104    57 1
  113   105    57 1
  114   106    57 1
  115   107    55 1
  116   108    55 1
  117   109    54 1
  118   110    54 1
  119   111    53 1
  120   112    53 1
  121   113    19 1
  122   114    18 1
  123   115    17 1
  124   116     9 1
  125   117     2 1
  126   118    52 1
  127   119    52 1
  128   120    52 1
  129   121    51 1
  130   122    50 1
  131   123    50 1
  132   124    49 1
  133   125    49 1
  134   126    48 1
  135   127    48 1
  136   128    43 1
  137   129    43 1
  138   130    43 1
  139   131    39 1
  140   132    32 1
  141   133    31 1
  142   134    61 1
  143   135    56 1
  144   136    24 1
  145   137    24 1
  146   139   138 1
  147   140   139 1
  148   141   140 1
  149   142   140 1
  150   143   142 1
  151   144   138 1
  152   144   143 1
  153   145   144 1
  154   146   145 1
  155   147   146 1
  156   148   147 1
  157   149   148 1
  158   150   149 1
  159   151   150 1
  160   152   151 1
  161   153   152 1
  162   154   138 1
  163   155   138 1
  164   156   143 1
  165   157   147 1
  166   158   151 1
  167   160   159 1
  168   161   160 1
  169   162   161 1
  170   163   161 1
  171   164   163 1
  172   165   159 1
  173   165   164 1
  174   166   165 1
  175   167   166 1
  176   168   167 1
  177   169   168 1
  178   170   169 1
  179   171   170 1
  180   172   171 1
  181   173   172 1
  182   174   153 1
  183   174   173 1
  184   175   159 1
  185   176   159 1
  186   177   164 1
  187   178   168 1
  188   179   172 1
  189   180   179 1
  190   181   179 1
  191   182   179 1
  192   183   178 1
  193   184   178 1
  194   185   178 1
  195   186   177 1
  196   187   177 1
  197   188   177 1
  198   189   176 1
  199   190   176 1
  200   191   176 1
  201   192   175 1
  202   193   175 1
  203   194   175 1
  204   195   160 1
  205   196   160 1
  206   197   158 1
  207   198   158 1
  208   199   158 1
  209   200   157 1
  210   201   157 1
  211   202   157 1
  212   203   156 1
  213   204   156 1
  214   205   156 1
  215   206   155 1
  216   207   155 1
  217   208   155 1
  218   209   154 1
  219   210   154 1
  220   211   154 1
  221   212   141 1
  222   213   146 1
  223   214   145 1
  224   215   142 1
  225   216   142 1
  226   217   174 1
  227   218   173 1
  228   219   171 1
  229   220   170 1
  230   221   169 1
  231   222   140 1
  232   223   167 1
  233   224   166 1
  234   225   165 1
  235   226   163 1
  236   227   161 1
  237   228   139 1
  238   229   139 1
  239   230   153 1
  240   231   152 1
  241   232   150 1
  242   233   149 1
  243   234   148 1
  244   235   162 1
  245   65    153 1
  246   65    174 1
@<TRIPOS>SUBSTRUCTURE
      1 CLA               1 ****               0 ****  **** 
      2 LUT             138 ****               0 ****  **** 
