@<TRIPOS>MOLECULE
Cpptraj generated mol2 file.
  235   246     2     0     0
SMALL
USER_CHARGES


@<TRIPOS>ATOM
      1 CAA        77.0602   58.1051   33.6466 a2         1 CLA     -0.055900
      2 CAB        77.0040   61.2865   42.9666 c8         1 CLA     -0.148500
      3 CAC        70.1629   57.3352   42.2016 a2         1 CLA     -0.012600
      4 CAD        73.0136   55.3139   34.7183 ck         1 CLA      0.398800
      5 NA         76.0900   58.2828   37.1468 ns         1 CLA     -0.225500
      6 CBA        78.3597   58.1953   32.8212 a2         1 CLA     -0.135000
      7 CBB        78.1569   61.1066   43.6262 c0         1 CLA     -0.395200
      8 CBC        70.1189   55.7744   42.4215 a3         1 CLA     -0.037700
      9 CBD        74.4814   56.0171   34.3630 a1         1 CLA     -0.053900
     10 NB         75.9231   59.7173   39.6920 nm         1 CLA     -0.295700
     11 OBD        72.4738   54.5306   33.9288 o2         1 CLA     -0.494600
     12 CGA        78.9733   56.8639   32.3477 c4         1 CLA      0.827000
     13 CGD        75.3720   54.8774   34.0531 c4         1 CLA      0.655300
     14 ND         73.3449   57.2207   37.6220 nm         1 CLA     -0.291600
     15 CED        76.2435   52.8955   35.1275 a3         1 CLA      0.005400
     16 CHA        74.8027   56.8462   35.6249 cs         1 CLA     -0.123800
     17 CHB        77.7797   59.7518   38.1013 aa         1 CLA     -0.291900
     18 CHC        74.5335   59.7504   41.7548 aa         1 CLA     -0.090400
     19 CHD        71.5224   56.8837   39.2435 aa         1 CLA     -0.052000
     20 CMA        79.5792   58.0394   36.1838 a3         1 CLA     -0.230700
     21 CMB        79.2045   61.3233   40.3809 a3         1 CLA     -0.180800
     22 CMC        72.3638   58.9226   43.8529 a3         1 CLA     -0.134000
     23 CMD        70.3904   54.8925   36.9432 a3         1 CLA     -0.141100
     24 C1         79.7584   54.6980   33.1082 a2         1 CLA      0.023000
     25 C1A        75.9883   57.5486   35.9737 ac         1 CLA     -0.015100
     26 C1B        77.1768   60.0546   39.3482 cr         1 CLA      0.054700
     27 C1C        73.4175   58.9746   41.4409 cn         1 CLA     -0.005600
     28 C1D        72.1239   56.6729   38.0030 ap         1 CLA     -0.047300
     29 O1A        78.8879   56.4531   31.1902 o2         1 CLA     -0.610800
     30 O1D        76.0545   54.7182   33.0475 o2         1 CLA     -0.558200
     31 C2         80.0786   53.9561   34.3717 c8         1 CLA     -0.325100
     32 C2A        77.2288   57.6466   35.1285 a1         1 CLA      0.098600
     33 C2B        77.8102   60.7471   40.4829 cb         1 CLA      0.088500
     34 C2C        72.3900   58.6514   42.3375 cb         1 CLA      0.053700
     35 C2D        71.6249   55.7732   36.9393 cb         1 CLA      0.058900
     36 O2A        79.4662   56.1483   33.3659 o1         1 CLA     -0.437200
     37 O2D        75.3994   54.0452   35.1882 o1         1 CLA     -0.357600
     38 C3         80.8288   52.8807   34.3974 c5         1 CLA      0.031200
     39 C3A        78.1256   58.5865   35.9413 a1         1 CLA      0.166800
     40 C3B        76.8714   60.7947   41.5320 cb         1 CLA      0.035000
     41 C3C        71.4170   57.8821   41.5777 cb         1 CLA     -0.089900
     42 C3D        72.6271   55.8407   35.9642 cb         1 CLA     -0.035900
     43 C4         80.4015   51.4424   34.3968 a3         1 CLA     -0.053300
     44 C4A        77.2536   58.8906   37.1856 ac         1 CLA      0.001800
     45 C4B        75.6780   60.0131   41.0329 cn         1 CLA     -0.020900
     46 C4C        71.9915   57.7056   40.2722 cr         1 CLA     -0.044400
     47 C4D        73.6822   56.7116   36.4632 c6         1 CLA     -0.046000
     48 C5         82.3154   53.1568   34.2141 a2         1 CLA     -0.070400
     49 C6         82.9375   54.5126   34.6790 a2         1 CLA      0.043900
     50 C7         83.3278   54.5428   36.1060 a2         1 CLA     -0.150000
     51 C8         83.9116   55.9487   36.5549 a1         1 CLA      0.064200
     52 C9         85.3756   55.8809   36.0735 a3         1 CLA     -0.259300
     53 C10        83.7710   56.0953   38.1166 a2         1 CLA     -0.071900
     54 C11        82.3669   56.1343   38.7571 a2         1 CLA      0.014500
     55 C12        82.4845   56.2197   40.3053 a2         1 CLA     -0.112100
     56 C13        81.1564   56.4633   41.0882 a1         1 CLA      0.089200
     57 C14        80.2009   57.6462   40.5834 a3         1 CLA     -0.239100
     58 C15        81.2723   56.5434   42.5866 a2         1 CLA     -0.102200
     59 C16        81.9248   57.8393   43.1957 a2         1 CLA      0.023900
     60 C17        81.9201   57.6997   44.7238 a2         1 CLA     -0.105700
     61 C18        82.3471   58.9454   45.4823 a1         1 CLA      0.206800
     62 C19        83.8772   59.0256   45.6217 a3         1 CLA     -0.280100
     63 C20        81.7668   60.2209   45.0084 a3         1 CLA     -0.280100
     64 NC         73.1678   58.4382   40.1775 nx         1 CLA     -0.309200
     65 MG         74.5896   58.5478   38.5825 mg         1 CLA      0.895000
     66 HMD3       70.0221   54.6961   37.9241 dc         1 CLA      0.064300
     67 HMD2       69.5138   55.3589   36.4208 dc         1 CLA      0.064300
     68 HMD1       70.6524   53.9486   36.4673 dc         1 CLA      0.064300
     69 HMC3       71.3600   59.2431   44.1444 dc         1 CLA      0.052100
     70 HMC2       72.6322   57.9617   44.3238 dc         1 CLA      0.052100
     71 HMC1       73.1082   59.7442   44.2061 dc         1 CLA      0.052100
     72 HMB3       79.8718   60.6060   40.9531 dc         1 CLA      0.063600
     73 HMB2       79.6256   61.5616   39.3877 dc         1 CLA      0.063600
     74 HMB1       79.2633   62.1708   41.0213 dc         1 CLA      0.063600
     75 HMA3       80.0198   57.6188   35.3467 dc         1 CLA      0.058300
     76 HMA2       80.2173   58.8151   36.6150 dc         1 CLA      0.058300
     77 HMA1       79.4610   57.2907   36.9325 dc         1 CLA      0.058300
     78 HED3       76.0363   52.1911   35.8892 dc         1 CLA      0.079300
     79 HED2       75.9360   52.5456   34.1737 dc         1 CLA      0.079300
     80 HED1       77.2760   52.9952   35.2016 dc         1 CLA      0.079300
     81 HBC3       69.6226   55.3576   43.3045 dc         1 CLA      0.016300
     82 HBC2       69.7691   55.1979   41.5124 dc         1 CLA      0.016300
     83 HBC1       71.1423   55.4252   42.4546 dc         1 CLA      0.016300
     84 HBB2       78.1821   61.4778   44.7148 da         1 CLA      0.183000
     85 HBB1       79.0313   60.6323   43.1947 da         1 CLA      0.183000
     86 HBA2       78.2295   58.7537   31.8839 dc         1 CLA      0.029400
     87 HBA1       79.1197   58.6447   33.4362 dc         1 CLA      0.029400
     88 HAC2       69.9260   57.7291   43.2206 dc         1 CLA      0.029300
     89 HAC1       69.3476   57.6007   41.6068 dc         1 CLA      0.029300
     90 HAA2       76.5052   57.3039   33.1279 dc         1 CLA      0.028700
     91 HAA1       76.4593   59.0373   33.6740 dc         1 CLA      0.028700
     92 H203       81.9039   60.9578   45.7126 dc         1 CLA      0.065600
     93 H202       82.2180   60.5514   43.9801 dc         1 CLA      0.065600
     94 H201       80.6860   59.9415   44.9472 dc         1 CLA      0.065600
     95 H193       84.0912   60.0313   46.0651 dc         1 CLA      0.065600
     96 H192       84.1540   58.2355   46.3602 dc         1 CLA      0.065600
     97 H191       84.3830   58.7419   44.6812 dc         1 CLA      0.065600
     98 H172       80.9108   57.5609   44.9320 dc         1 CLA      0.027600
     99 H171       82.6437   56.9110   45.0213 dc         1 CLA      0.027600
    100 H162       82.9963   57.8395   43.0176 dc         1 CLA      0.002900
    101 H161       81.4951   58.7851   42.7881 dc         1 CLA      0.002900
    102 H152       80.2857   56.3470   43.0563 dc         1 CLA      0.029100
    103 H151       81.9236   55.7255   42.8946 dc         1 CLA      0.029100
    104 H143       80.8262   58.5200   40.4957 dc         1 CLA      0.063600
    105 H142       79.6980   57.3941   39.6488 dc         1 CLA      0.063600
    106 H141       79.4256   57.7777   41.3058 dc         1 CLA      0.063600
    107 H122       83.0340   55.3395   40.5822 dc         1 CLA      0.032500
    108 H121       83.1753   57.0171   40.5729 dc         1 CLA      0.032500
    109 H112       81.8423   56.9664   38.4273 dc         1 CLA      0.006600
    110 H111       81.6922   55.2955   38.5196 dc         1 CLA      0.006600
    111 H102       84.3619   55.3915   38.6755 dc         1 CLA      0.024100
    112 H101       84.2575   57.0285   38.2560 dc         1 CLA      0.024100
    113 HHD        70.5431   56.4302   39.3801 da         1 CLA      0.174300
    114 HHC        74.5949   60.1238   42.7802 da         1 CLA      0.136800
    115 HHB        78.7184   60.2465   37.9576 da         1 CLA      0.138300
    116 HBD        74.2752   56.5793   33.4115 dc         1 CLA      0.107700
    117 HAB        76.1659   61.8167   43.3612 da         1 CLA      0.155200
    118 H93        85.4446   55.9501   35.0118 dc         1 CLA      0.069500
    119 H92        85.8873   56.7771   36.3176 dc         1 CLA      0.069500
    120 H91        85.9122   54.9914   36.4885 dc         1 CLA      0.069500
    121 H8         83.3974   56.7411   35.9806 dc         1 CLA      0.029300
    122 H72        82.3752   54.3064   36.6346 dc         1 CLA      0.044400
    123 H71        84.0260   53.7310   36.3089 dc         1 CLA      0.044400
    124 H62        83.8480   54.5983   34.1292 dc         1 CLA      0.015600
    125 H61        82.3725   55.3612   34.4203 dc         1 CLA      0.015600
    126 H52        82.8753   52.2491   34.5314 dc         1 CLA      0.033200
    127 H51        82.4674   53.0609   33.1310 dc         1 CLA      0.033200
    128 H43        80.4631   50.9436   33.4893 dc         1 CLA      0.037000
    129 H42        81.0177   50.8854   35.1598 dc         1 CLA      0.037000
    130 H41        79.3686   51.3836   34.7334 dc         1 CLA      0.037000
    131 H3A        78.2019   59.5469   35.4687 dc         1 CLA      0.041100
    132 H2A        77.6380   56.6130   35.1853 dc         1 CLA      0.083100
    133 H2         79.7404   54.3497   35.3184 da         1 CLA      0.180900
    134 H18        81.8958   58.8910   46.4986 dc         1 CLA     -0.003900
    135 H13        80.4855   55.6266   40.9593 dc         1 CLA      0.019700
    136 H12        78.8996   54.3410   32.5234 dc         1 CLA      0.120400
    137 H11        80.6169   54.6357   32.4844 dc         1 CLA      0.120400
    138 C1         66.9014   61.6068   49.9724 Z1         2 LUT      0.509236
    139 C2         66.9308   62.8499   50.9311 Z2         2 LUT     -0.434695
    140 C3         65.7466   63.7199   50.7850 Z3         2 LUT      0.437453
    141 O3         66.2614   65.0786   50.9921 S1         2 LUT     -0.547129
    142 C4         64.9726   63.6354   49.5200 Z4         2 LUT     -0.468603
    143 C5         65.6827   63.1594   48.3145 Z5         2 LUT      0.279246
    144 C6         66.4702   62.0519   48.4804 Z6         2 LUT     -0.305473
    145 C7         67.3333   61.5520   47.3871 Z7         2 LUT      0.069402
    146 C8         68.2789   62.1476   46.5832 Z8         2 LUT     -0.191631
    147 C9         68.9712   61.6150   45.3188 Z9         2 LUT      0.196698
    148 C10        70.0439   62.3411   44.8147 Y1         2 LUT     -0.208611
    149 C11        70.8102   62.1468   43.5280 Y2         2 LUT      0.030784
    150 C12        71.8733   62.8907   43.0804 Y3         2 LUT     -0.220316
    151 C13        72.5680   62.8373   41.8915 Y4         2 LUT      0.215937
    152 C14        73.8142   63.5031   41.8646 Y5         2 LUT     -0.185793
    153 C15        74.8289   63.5703   40.7833 Y6         2 LUT     -0.057835
    154 C16        65.9642   60.5481   50.6423 Y7         2 LUT     -0.405615
    155 C17        68.3042   60.9511   50.0756 Y7         2 LUT     -0.405615
    156 C18        65.6615   64.0364   47.1273 Y9         2 LUT     -0.369639
    157 C19        68.3692   60.4665   44.5859 W1         2 LUT     -0.333362
    158 C20        71.9190   62.1110   40.7533 W2         2 LUT     -0.323439
    159 C21        86.2842   64.4666   34.5068 Z1         2 LUT      0.406104
    160 C22        86.8604   63.8055   33.2102 Z2         2 LUT     -0.404965
    161 C23        87.0341   64.8198   32.1060 Z3         2 LUT      0.391255
    162 O23        87.6613   64.3236   31.0072 S1         2 LUT     -0.528210
    163 C24        85.8588   65.7307   31.9022 W6         2 LUT     -0.258361
    164 C25        84.8616   65.7989   32.7951 Z5         2 LUT      0.133546
    165 C26        84.8821   64.9888   34.1309 W8         2 LUT     -0.147008
    166 C27        84.1782   65.6385   35.2206 Z7         2 LUT      0.023843
    167 C28        82.9185   65.4400   35.7060 Z8         2 LUT     -0.216987
    168 C29        82.3493   65.7649   37.0015 Z9         2 LUT      0.206524
    169 C30        81.1556   65.1316   37.3582 Y1         2 LUT     -0.215556
    170 C31        80.4861   65.1221   38.6705 Y2         2 LUT      0.025142
    171 C32        79.1637   64.7339   38.7900 Y3         2 LUT     -0.212209
    172 C33        78.3904   64.7028   40.0292 Y4         2 LUT      0.240937
    173 C34        77.1233   64.2644   39.9448 Y5         2 LUT     -0.218862
    174 C35        76.1184   64.0910   40.9660 Y6         2 LUT     -0.023547
    175 C36        87.3170   65.5438   35.0504 Y7         2 LUT     -0.393485
    176 C37        86.2567   63.2856   35.5545 Y7         2 LUT     -0.393485
    177 C38        83.6594   66.6697   32.4993 Y9         2 LUT     -0.387526
    178 C39        83.1814   66.6607   37.9603 W1         2 LUT     -0.322618
    179 C40        78.9263   65.2862   41.3022 W2         2 LUT     -0.358472
    180 H403       79.9596   65.3421   41.4468 R7         2 LUT      0.097720
    181 H402       78.4996   66.3277   41.4332 R7         2 LUT      0.097720
    182 H401       78.4633   64.7672   42.1609 R7         2 LUT      0.097720
    183 H393       84.2646   66.4551   37.9856 R4         2 LUT      0.082505
    184 H392       82.9480   67.6455   37.8295 R4         2 LUT      0.082505
    185 H391       82.9278   66.5446   39.0185 R4         2 LUT      0.082505
    186 H383       82.6952   66.0604   32.5473 R1         2 LUT      0.104030
    187 H382       83.6727   67.6063   33.0785 R1         2 LUT      0.104030
    188 H381       83.6985   67.0920   31.4611 R1         2 LUT      0.104030
    189 H373       85.4568   62.6183   35.1869 T4         2 LUT      0.089537
    190 H372       87.1799   62.6872   35.5778 T4         2 LUT      0.089537
    191 H371       86.0399   63.6752   36.5611 T4         2 LUT      0.089537
    192 H363       88.2928   65.0873   35.0079 T4         2 LUT      0.089537
    193 H362       87.2760   66.3872   34.3628 T4         2 LUT      0.089537
    194 H361       87.0871   65.8341   36.1199 T4         2 LUT      0.089537
    195 H222       87.7903   63.2247   33.3747 U2         2 LUT      0.127376
    196 H221       86.1470   63.1149   32.7900 U2         2 LUT      0.127376
    197 H203       72.3755   62.5176   39.8999 R7         2 LUT      0.087068
    198 H202       72.0151   61.0131   40.8223 R7         2 LUT      0.087068
    199 H201       70.8502   62.3233   40.7212 R7         2 LUT      0.087068
    200 H193       67.3693   60.3159   44.8557 R4         2 LUT      0.089716
    201 H192       68.2873   60.6495   43.5404 R4         2 LUT      0.089716
    202 H191       68.8815   59.5098   44.7597 R4         2 LUT      0.089716
    203 H183       64.6591   64.5043   47.0057 R1         2 LUT      0.094572
    204 H182       66.5258   64.6904   47.2454 R1         2 LUT      0.094572
    205 H181       65.8549   63.4492   46.2305 R1         2 LUT      0.094572
    206 H173       69.1497   61.4447   49.5538 T4         2 LUT      0.093752
    207 H172       68.5939   60.6619   51.1082 T4         2 LUT      0.093752
    208 H171       68.2954   59.9846   49.6020 T4         2 LUT      0.093752
    209 H163       66.4719   60.0686   51.4126 T4         2 LUT      0.093752
    210 H162       65.0228   60.8212   51.0493 T4         2 LUT      0.093752
    211 H161       65.6435   59.8131   49.8619 T4         2 LUT      0.093752
    212 HO3        65.9115   65.4332   51.8817 Q1         2 LUT      0.300121
    213 H8         68.5815   63.1394   46.8734 U7         2 LUT      0.080784
    214 H7         67.0862   60.5669   47.0715 U6         2 LUT      0.042190
    215 H42        64.0316   63.0211   49.7359 U5         2 LUT      0.145166
    216 H41        64.4683   64.6270   49.2752 U5         2 LUT      0.145166
    217 H35        76.2871   64.3968   41.9587 T3         2 LUT      0.077919
    218 H34        76.6535   63.9525   39.0221 T2         2 LUT      0.073626
    219 H32        78.6017   64.4551   37.9287 T1         2 LUT      0.092510
    220 H31        80.9086   65.5818   39.6020 U9         2 LUT      0.070048
    221 H30        80.6982   64.6259   36.5173 U8         2 LUT      0.085442
    222 H3         65.0778   63.3350   51.6081 U3         2 LUT     -0.031596
    223 H28        82.2918   64.7601   35.1895 U7         2 LUT      0.084728
    224 H27        84.9238   66.1197   35.9089 U6         2 LUT      0.087291
    225 H26        84.4140   64.0381   33.8808 Q6         2 LUT      0.075325
    226 H24        85.7741   66.2634   30.9819 Q5         2 LUT      0.094482
    227 H23        87.8051   65.5892   32.4465 U3         2 LUT     -0.024869
    228 H22        66.9727   62.7032   52.0408 U2         2 LUT      0.127376
    229 H21        67.7693   63.5143   50.6535 U2         2 LUT      0.127376
    230 H15        74.5771   63.1919   39.7712 T3         2 LUT      0.093200
    231 H14        74.1182   63.8808   42.8579 T2         2 LUT      0.068865
    232 H12        72.2790   63.5996   43.7497 T1         2 LUT      0.095507
    233 H11        70.4125   61.4145   42.8022 U9         2 LUT      0.068930
    234 H10        70.3905   63.1984   45.4124 U8         2 LUT      0.083911
    235 H1         87.1477   63.7847   30.4500 Q1         2 LUT      0.297311
@<TRIPOS>BOND
    1     6     1 1
    2     7     2 1
    3     8     3 1
    4     9     4 1
    5    11     4 1
    6    12     6 1
    7    13     9 1
    8    16     9 1
    9    25     5 1
   10    25    16 1
   11    26    10 1
   12    26    17 1
   13    27    18 1
   14    28    14 1
   15    28    19 1
   16    29    12 1
   17    30    13 1
   18    31    24 1
   19    32     1 1
   20    32    25 1
   21    33    21 1
   22    33    26 1
   23    34    22 1
   24    34    27 1
   25    35    23 1
   26    35    28 1
   27    36    12 1
   28    36    24 1
   29    37    13 1
   30    37    15 1
   31    38    31 1
   32    39    20 1
   33    39    32 1
   34    40     2 1
   35    40    33 1
   36    41     3 1
   37    41    34 1
   38    42     4 1
   39    42    35 1
   40    43    38 1
   41    44     5 1
   42    44    17 1
   43    44    39 1
   44    45    10 1
   45    45    18 1
   46    45    40 1
   47    46    19 1
   48    46    41 1
   49    47    14 1
   50    47    16 1
   51    47    42 1
   52    48    38 1
   53    49    48 1
   54    50    49 1
   55    51    50 1
   56    52    51 1
   57    53    51 1
   58    54    53 1
   59    55    54 1
   60    56    55 1
   61    57    56 1
   62    58    56 1
   63    59    58 1
   64    60    59 1
   65    61    60 1
   66    62    61 1
   67    63    61 1
   68    64    27 1
   69    64    46 1
   70    65     5 1
   71    65    10 1
   72    65    64 1
   73    65    14 1
   74    66    23 1
   75    67    23 1
   76    68    23 1
   77    69    22 1
   78    70    22 1
   79    71    22 1
   80    72    21 1
   81    73    21 1
   82    74    21 1
   83    75    20 1
   84    76    20 1
   85    77    20 1
   86    78    15 1
   87    79    15 1
   88    80    15 1
   89    81     8 1
   90    82     8 1
   91    83     8 1
   92    84     7 1
   93    85     7 1
   94    86     6 1
   95    87     6 1
   96    88     3 1
   97    89     3 1
   98    90     1 1
   99    91     1 1
  100    92    63 1
  101    93    63 1
  102    94    63 1
  103    95    62 1
  104    96    62 1
  105    97    62 1
  106    98    60 1
  107    99    60 1
  108   100    59 1
  109   101    59 1
  110   102    58 1
  111   103    58 1
  112   104    57 1
  113   105    57 1
  114   106    57 1
  115   107    55 1
  116   108    55 1
  117   109    54 1
  118   110    54 1
  119   111    53 1
  120   112    53 1
  121   113    19 1
  122   114    18 1
  123   115    17 1
  124   116     9 1
  125   117     2 1
  126   118    52 1
  127   119    52 1
  128   120    52 1
  129   121    51 1
  130   122    50 1
  131   123    50 1
  132   124    49 1
  133   125    49 1
  134   126    48 1
  135   127    48 1
  136   128    43 1
  137   129    43 1
  138   130    43 1
  139   131    39 1
  140   132    32 1
  141   133    31 1
  142   134    61 1
  143   135    56 1
  144   136    24 1
  145   137    24 1
  146   139   138 1
  147   140   139 1
  148   141   140 1
  149   142   140 1
  150   143   142 1
  151   144   138 1
  152   144   143 1
  153   145   144 1
  154   146   145 1
  155   147   146 1
  156   148   147 1
  157   149   148 1
  158   150   149 1
  159   151   150 1
  160   152   151 1
  161   153   152 1
  162   154   138 1
  163   155   138 1
  164   156   143 1
  165   157   147 1
  166   158   151 1
  167   160   159 1
  168   161   160 1
  169   162   161 1
  170   163   161 1
  171   164   163 1
  172   165   159 1
  173   165   164 1
  174   166   165 1
  175   167   166 1
  176   168   167 1
  177   169   168 1
  178   170   169 1
  179   171   170 1
  180   172   171 1
  181   173   172 1
  182   174   153 1
  183   174   173 1
  184   175   159 1
  185   176   159 1
  186   177   164 1
  187   178   168 1
  188   179   172 1
  189   180   179 1
  190   181   179 1
  191   182   179 1
  192   183   178 1
  193   184   178 1
  194   185   178 1
  195   186   177 1
  196   187   177 1
  197   188   177 1
  198   189   176 1
  199   190   176 1
  200   191   176 1
  201   192   175 1
  202   193   175 1
  203   194   175 1
  204   195   160 1
  205   196   160 1
  206   197   158 1
  207   198   158 1
  208   199   158 1
  209   200   157 1
  210   201   157 1
  211   202   157 1
  212   203   156 1
  213   204   156 1
  214   205   156 1
  215   206   155 1
  216   207   155 1
  217   208   155 1
  218   209   154 1
  219   210   154 1
  220   211   154 1
  221   212   141 1
  222   213   146 1
  223   214   145 1
  224   215   142 1
  225   216   142 1
  226   217   174 1
  227   218   173 1
  228   219   171 1
  229   220   170 1
  230   221   169 1
  231   222   140 1
  232   223   167 1
  233   224   166 1
  234   225   165 1
  235   226   163 1
  236   227   161 1
  237   228   139 1
  238   229   139 1
  239   230   153 1
  240   231   152 1
  241   232   150 1
  242   233   149 1
  243   234   148 1
  244   235   162 1
  245   65    153 1
  246   65    174 1
@<TRIPOS>SUBSTRUCTURE
      1 CLA               1 ****               0 ****  **** 
      2 LUT             138 ****               0 ****  **** 
