@<TRIPOS>MOLECULE
Cpptraj generated mol2 file.
  235   246     2     0     0
SMALL
USER_CHARGES


@<TRIPOS>ATOM
      1 CAA        77.8274   59.1425   33.6566 a2         1 CLA     -0.055900
      2 CAB        78.3414   62.4448   42.7409 c8         1 CLA     -0.148500
      3 CAC        71.4879   58.3553   42.6645 a2         1 CLA     -0.012600
      4 CAD        73.8513   56.2160   34.9663 ck         1 CLA      0.398800
      5 NA         77.1374   59.0590   37.1421 ns         1 CLA     -0.225500
      6 CBA        78.9413   59.0125   32.5661 a2         1 CLA     -0.135000
      7 CBB        79.5016   62.5239   43.4535 c0         1 CLA     -0.395200
      8 CBC        70.8141   57.0153   42.3032 a3         1 CLA     -0.037700
      9 CBD        75.2686   56.8597   34.5145 a1         1 CLA     -0.053900
     10 NB         77.1010   60.7217   39.7059 nm         1 CLA     -0.295700
     11 OBD        73.2231   55.4348   34.2238 o2         1 CLA     -0.494600
     12 CGA        79.5599   57.6825   32.0235 c4         1 CLA      0.827000
     13 CGD        76.2721   55.8511   34.0932 c4         1 CLA      0.655300
     14 ND         74.3802   58.2470   37.8803 nm         1 CLA     -0.291600
     15 CED        77.1397   53.6595   34.3743 a3         1 CLA      0.005400
     16 CHA        75.7255   57.6857   35.7728 cs         1 CLA     -0.123800
     17 CHB        78.8938   60.5535   38.0802 aa         1 CLA     -0.291900
     18 CHC        75.7972   60.9336   41.8677 aa         1 CLA     -0.090400
     19 CHD        72.6084   58.0333   39.5742 aa         1 CLA     -0.052000
     20 CMA        80.5224   58.4946   36.2188 a3         1 CLA     -0.230700
     21 CMB        80.4333   62.3983   40.2946 a3         1 CLA     -0.180800
     22 CMC        73.4664   60.3984   43.9718 a3         1 CLA     -0.134000
     23 CMD        71.2457   56.1621   37.2970 a3         1 CLA     -0.141100
     24 C1         80.6003   55.7172   32.8810 a2         1 CLA      0.023000
     25 C1A        76.9555   58.4105   35.9699 ac         1 CLA     -0.015100
     26 C1B        78.3628   60.9478   39.3409 cr         1 CLA      0.054700
     27 C1C        74.6185   60.2073   41.6320 cn         1 CLA     -0.005600
     28 C1D        73.1827   57.7349   38.3062 ap         1 CLA     -0.047300
     29 O1A        79.2859   57.2273   30.9389 o2         1 CLA     -0.610800
     30 O1D        77.1212   56.0539   33.2134 o2         1 CLA     -0.558200
     31 C2         81.0876   55.1319   34.2220 c8         1 CLA     -0.325100
     32 C2A        78.1506   58.4845   34.9999 a1         1 CLA      0.098600
     33 C2B        79.0134   61.6936   40.3740 cb         1 CLA      0.088500
     34 C2C        73.5823   59.8062   42.5884 cb         1 CLA      0.053700
     35 C2D        72.5767   56.8636   37.2849 cb         1 CLA      0.058900
     36 O2A        80.2698   57.0905   33.0824 o1         1 CLA     -0.437200
     37 O2D        76.1245   54.6626   34.7535 o1         1 CLA     -0.357600
     38 C3         81.8701   54.0743   34.4376 c5         1 CLA      0.031200
     39 C3A        79.2356   59.2408   35.8931 a1         1 CLA      0.166800
     40 C3B        78.1593   61.7618   41.4535 cb         1 CLA      0.035000
     41 C3C        72.7819   58.9020   41.9223 cb         1 CLA     -0.089900
     42 C3D        73.5595   56.8141   36.2671 cb         1 CLA     -0.035900
     43 C4         81.3230   52.6905   34.8775 a3         1 CLA     -0.053300
     44 C4A        78.3900   59.6054   37.1113 ac         1 CLA      0.001800
     45 C4B        76.9495   61.1394   41.0149 cn         1 CLA     -0.020900
     46 C4C        73.2341   58.7678   40.5641 cr         1 CLA     -0.044400
     47 C4D        74.6802   57.6650   36.6811 c6         1 CLA     -0.046000
     48 C5         83.3802   54.1647   34.1293 a2         1 CLA     -0.070400
     49 C6         84.0841   55.4319   34.6012 a2         1 CLA      0.043900
     50 C7         84.1793   55.5734   36.1128 a2         1 CLA     -0.150000
     51 C8         84.4309   57.0301   36.6866 a1         1 CLA      0.064200
     52 C9         85.7336   57.7972   36.2832 a3         1 CLA     -0.259300
     53 C10        84.1570   57.0418   38.2223 a2         1 CLA     -0.071900
     54 C11        83.5454   58.3741   38.8101 a2         1 CLA      0.014500
     55 C12        83.6826   58.6137   40.3053 a2         1 CLA     -0.112100
     56 C13        82.6652   57.9082   41.2980 a1         1 CLA      0.089200
     57 C14        81.1543   58.2694   41.0642 a3         1 CLA     -0.239100
     58 C15        83.1344   58.2995   42.7665 a2         1 CLA     -0.102200
     59 C16        83.0531   59.7597   43.1850 a2         1 CLA      0.023900
     60 C17        83.7930   59.8549   44.4961 a2         1 CLA     -0.105700
     61 C18        83.6785   61.2018   45.3007 a1         1 CLA      0.206800
     62 C19        82.2635   61.5592   45.8450 a3         1 CLA     -0.280100
     63 C20        84.8044   61.4562   46.4191 a3         1 CLA     -0.280100
     64 NC         74.3596   59.5507   40.4286 nx         1 CLA     -0.309200
     65 MG         75.6707   59.5715   38.6896 mg         1 CLA      0.895000
     66 HMD3       71.1044   55.5491   38.2022 dc         1 CLA      0.064300
     67 HMD2       70.4830   56.9107   37.0468 dc         1 CLA      0.064300
     68 HMD1       71.3887   55.4461   36.4049 dc         1 CLA      0.064300
     69 HMC3       73.9618   61.3816   43.9268 dc         1 CLA      0.052100
     70 HMC2       72.4612   60.3255   44.2048 dc         1 CLA      0.052100
     71 HMC1       74.0310   59.6415   44.5279 dc         1 CLA      0.052100
     72 HMB3       80.6959   63.0434   41.1629 dc         1 CLA      0.063600
     73 HMB2       80.9974   61.4545   40.1600 dc         1 CLA      0.063600
     74 HMB1       80.3962   63.1125   39.4239 dc         1 CLA      0.063600
     75 HMA3       81.2750   59.1362   36.6889 dc         1 CLA      0.058300
     76 HMA2       80.2186   57.5439   36.6994 dc         1 CLA      0.058300
     77 HMA1       80.8849   58.2939   35.1977 dc         1 CLA      0.058300
     78 HED3       76.8431   53.1639   33.4815 dc         1 CLA      0.079300
     79 HED2       78.1766   53.9956   34.2529 dc         1 CLA      0.079300
     80 HED1       77.1065   52.9574   35.1752 dc         1 CLA      0.079300
     81 HBC3       71.6138   56.2645   42.1342 dc         1 CLA      0.016300
     82 HBC2       70.1993   56.7241   43.0963 dc         1 CLA      0.016300
     83 HBC1       70.2491   57.1177   41.4181 dc         1 CLA      0.016300
     84 HBB2       79.5229   62.9231   44.4706 da         1 CLA      0.183000
     85 HBB1       80.4278   62.1290   43.0256 da         1 CLA      0.183000
     86 HBA2       78.5332   59.5802   31.6841 dc         1 CLA      0.029400
     87 HBA1       79.8234   59.4882   32.9071 dc         1 CLA      0.029400
     88 HAC2       71.8450   58.2262   43.6884 dc         1 CLA      0.029300
     89 HAC1       70.7668   59.1723   42.7303 dc         1 CLA      0.029300
     90 HAA2       77.0540   58.5515   33.1478 dc         1 CLA      0.028700
     91 HAA1       77.3388   60.1439   33.6711 dc         1 CLA      0.028700
     92 H203       85.7790   61.5485   46.0098 dc         1 CLA      0.065600
     93 H202       84.6838   62.4790   46.8040 dc         1 CLA      0.065600
     94 H201       84.6651   60.7629   47.2661 dc         1 CLA      0.065600
     95 H193       81.6274   61.6900   45.0028 dc         1 CLA      0.065600
     96 H192       81.9233   60.7607   46.4400 dc         1 CLA      0.065600
     97 H191       82.1855   62.4713   46.4445 dc         1 CLA      0.065600
     98 H172       83.4416   59.0634   45.1506 dc         1 CLA      0.027600
     99 H171       84.8732   59.6216   44.2593 dc         1 CLA      0.027600
    100 H162       83.5168   60.4144   42.4954 dc         1 CLA      0.002900
    101 H161       82.0305   60.0747   43.3316 dc         1 CLA      0.002900
    102 H152       82.4369   57.7302   43.4350 dc         1 CLA      0.029100
    103 H151       84.1433   57.9596   42.9256 dc         1 CLA      0.029100
    104 H143       80.4845   57.6704   41.7046 dc         1 CLA      0.063600
    105 H142       80.9830   59.3262   41.4055 dc         1 CLA      0.063600
    106 H141       80.7794   57.9663   40.0618 dc         1 CLA      0.063600
    107 H122       84.6616   58.2603   40.6682 dc         1 CLA      0.032500
    108 H121       83.7451   59.6641   40.4492 dc         1 CLA      0.032500
    109 H112       84.0527   59.1879   38.2737 dc         1 CLA      0.006600
    110 H111       82.4831   58.4432   38.4451 dc         1 CLA      0.006600
    111 H102       83.6366   56.1688   38.5867 dc         1 CLA      0.024100
    112 H101       85.1264   56.8059   38.6595 dc         1 CLA      0.024100
    113 HHD        71.6398   57.5883   39.7893 da         1 CLA      0.174300
    114 HHC        75.9924   61.3650   42.8270 da         1 CLA      0.136800
    115 HHB        79.9054   60.9079   37.9122 da         1 CLA      0.138300
    116 HBD        75.1667   57.6296   33.7192 dc         1 CLA      0.107700
    117 HAB        77.4738   62.8574   43.1551 da         1 CLA      0.155200
    118 H93        85.8564   58.7641   36.6958 dc         1 CLA      0.069500
    119 H92        86.5742   57.2201   36.6632 dc         1 CLA      0.069500
    120 H91        85.8601   57.8821   35.2127 dc         1 CLA      0.069500
    121 H8         83.6124   57.6217   36.2392 dc         1 CLA      0.029300
    122 H72        83.1868   55.2379   36.4275 dc         1 CLA      0.044400
    123 H71        85.0611   54.9455   36.3608 dc         1 CLA      0.044400
    124 H62        85.0681   55.4086   34.0770 dc         1 CLA      0.015600
    125 H61        83.4700   56.2505   34.2531 dc         1 CLA      0.015600
    126 H52        83.9070   53.3769   34.6356 dc         1 CLA      0.033200
    127 H51        83.5289   54.2433   33.0063 dc         1 CLA      0.033200
    128 H43        81.7476   52.0885   34.0220 dc         1 CLA      0.037000
    129 H42        81.7777   52.4388   35.8589 dc         1 CLA      0.037000
    130 H41        80.2783   52.4226   34.8882 dc         1 CLA      0.037000
    131 H3A        79.7276   60.1388   35.4467 dc         1 CLA      0.041100
    132 H2A        78.4468   57.4357   34.8000 dc         1 CLA      0.083100
    133 H2         81.0228   55.8073   35.0080 da         1 CLA      0.180900
    134 H18        83.8246   61.9870   44.5885 dc         1 CLA     -0.003900
    135 H13        82.7181   56.8345   41.1882 dc         1 CLA      0.019700
    136 H12        79.7597   55.2299   32.4709 dc         1 CLA      0.120400
    137 H11        81.3505   55.5102   32.0830 dc         1 CLA      0.120400
    138 C1         68.6417   61.0630   50.0475 Z1         2 LUT      0.509236
    139 C2         68.3600   61.8172   51.3360 Z2         2 LUT     -0.434695
    140 C3         66.8683   61.9677   51.6607 Z3         2 LUT      0.437453
    141 O3         66.5837   62.5246   52.9741 S1         2 LUT     -0.547129
    142 C4         66.1698   62.7405   50.4939 Z4         2 LUT     -0.468603
    143 C5         66.7828   62.5187   49.1157 Z5         2 LUT      0.279246
    144 C6         67.8509   61.7845   48.8456 Z6         2 LUT     -0.305473
    145 C7         68.4887   61.6212   47.5219 Z7         2 LUT      0.069402
    146 C8         69.0567   62.4672   46.6843 Z8         2 LUT     -0.191631
    147 C9         69.7892   62.1460   45.4018 Z9         2 LUT      0.196698
    148 C10        70.7410   62.9958   44.9382 Y1         2 LUT     -0.208611
    149 C11        71.3755   63.0548   43.6701 Y2         2 LUT      0.030784
    150 C12        72.4274   63.9083   43.2938 Y3         2 LUT     -0.220316
    151 C13        73.2160   63.9148   42.1504 Y4         2 LUT      0.215937
    152 C14        74.3461   64.6715   42.1603 Y5         2 LUT     -0.185793
    153 C15        75.2729   64.8469   41.1307 Y6         2 LUT     -0.057835
    154 C16        68.0761   59.5361   50.1458 Y7         2 LUT     -0.405615
    155 C17        70.1915   60.8574   49.7315 Y7         2 LUT     -0.405615
    156 C18        66.1454   63.4624   48.1469 Y9         2 LUT     -0.369639
    157 C19        69.3154   60.8914   44.7831 W1         2 LUT     -0.333362
    158 C20        72.6358   63.3253   40.9857 W2         2 LUT     -0.323439
    159 C21        86.6639   66.2234   34.7393 Z1         2 LUT      0.406104
    160 C22        87.4642   65.9129   33.4703 Z2         2 LUT     -0.404965
    161 C23        87.4369   66.9784   32.4018 Z3         2 LUT      0.391255
    162 O23        88.1416   66.4531   31.2098 S1         2 LUT     -0.528210
    163 C24        86.0331   67.5544   32.2356 W6         2 LUT     -0.258361
    164 C25        85.0542   67.5394   33.1420 Z5         2 LUT      0.133546
    165 C26        85.2104   66.6942   34.4504 W8         2 LUT     -0.147008
    166 C27        84.4367   67.2770   35.6426 Z7         2 LUT      0.023843
    167 C28        83.2372   66.8013   36.1085 Z8         2 LUT     -0.216987
    168 C29        82.7013   66.8929   37.4409 Z9         2 LUT      0.206524
    169 C30        81.5486   66.1749   37.6774 Y1         2 LUT     -0.215556
    170 C31        80.8808   66.3316   38.9311 Y2         2 LUT      0.025142
    171 C32        79.6171   65.7892   39.0881 Y3         2 LUT     -0.212209
    172 C33        78.8404   65.8357   40.3243 Y4         2 LUT      0.240937
    173 C34        77.5319   65.4132   40.3040 Y5         2 LUT     -0.218862
    174 C35        76.5824   65.1730   41.3453 Y6         2 LUT     -0.023547
    175 C36        87.5652   67.3189   35.4165 Y7         2 LUT     -0.393485
    176 C37        86.8169   64.9895   35.6569 Y7         2 LUT     -0.393485
    177 C38        83.7944   68.4468   33.0380 Y9         2 LUT     -0.387526
    178 C39        83.3274   67.8577   38.4263 W1         2 LUT     -0.322618
    179 C40        79.4742   66.5139   41.5719 W2         2 LUT     -0.358472
    180 H403       80.4310   66.0397   41.7659 R7         2 LUT      0.097720
    181 H402       79.5587   67.6327   41.4870 R7         2 LUT      0.097720
    182 H401       78.9491   66.3455   42.5586 R7         2 LUT      0.097720
    183 H393       84.0435   68.5549   38.1356 R4         2 LUT      0.082505
    184 H392       82.4722   68.4063   38.8482 R4         2 LUT      0.082505
    185 H391       83.7716   67.3388   39.2843 R4         2 LUT      0.082505
    186 H383       83.0106   68.2118   33.7745 R1         2 LUT      0.104030
    187 H382       83.8800   69.5077   33.1628 R1         2 LUT      0.104030
    188 H381       83.2671   68.2710   32.1072 R1         2 LUT      0.104030
    189 H373       87.8450   64.9555   36.1831 T4         2 LUT      0.089537
    190 H372       86.0826   65.0579   36.4679 T4         2 LUT      0.089537
    191 H371       86.6303   64.1134   35.0436 T4         2 LUT      0.089537
    192 H363       88.6624   67.0607   35.5412 T4         2 LUT      0.089537
    193 H362       87.4280   68.2225   34.8832 T4         2 LUT      0.089537
    194 H361       87.2332   67.4992   36.4911 T4         2 LUT      0.089537
    195 H222       88.4875   65.5602   33.5109 U2         2 LUT      0.127376
    196 H221       86.9607   65.0344   33.0442 U2         2 LUT      0.127376
    197 H203       73.0125   63.7619   40.1319 R7         2 LUT      0.087068
    198 H202       72.6676   62.2402   40.8483 R7         2 LUT      0.087068
    199 H201       71.5667   63.5651   40.9446 R7         2 LUT      0.087068
    200 H193       69.8463   59.9736   44.9547 R4         2 LUT      0.089716
    201 H192       68.3276   60.5856   45.0170 R4         2 LUT      0.089716
    202 H191       69.4234   60.9374   43.7095 R4         2 LUT      0.089716
    203 H183       66.7889   64.4071   48.0961 R1         2 LUT      0.094572
    204 H182       66.0718   63.0046   47.1964 R1         2 LUT      0.094572
    205 H181       65.1314   63.7591   48.4774 R1         2 LUT      0.094572
    206 H173       70.6739   60.4889   50.5729 T4         2 LUT      0.093752
    207 H172       70.2549   60.2408   48.8850 T4         2 LUT      0.093752
    208 H171       70.5403   61.8246   49.4503 T4         2 LUT      0.093752
    209 H163       68.6153   58.9635   50.9466 T4         2 LUT      0.093752
    210 H162       67.0449   59.3905   50.3920 T4         2 LUT      0.093752
    211 H161       68.3081   59.0792   49.1757 T4         2 LUT      0.093752
    212 HO3        66.5682   61.8524   53.6369 Q1         2 LUT      0.300121
    213 H8         69.1780   63.5137   47.1335 U7         2 LUT      0.080784
    214 H7         68.5440   60.5405   47.3251 U6         2 LUT      0.042190
    215 H42        65.0517   62.6360   50.5141 U5         2 LUT      0.145166
    216 H41        66.3654   63.7856   50.6744 U5         2 LUT      0.145166
    217 H35        76.8809   65.3131   42.3567 T3         2 LUT      0.077919
    218 H34        77.1034   65.1100   39.3960 T2         2 LUT      0.073626
    219 H32        79.2362   65.3400   38.1652 T1         2 LUT      0.092510
    220 H31        81.4238   66.7271   39.7947 U9         2 LUT      0.070048
    221 H30        81.1351   65.5318   36.9057 U8         2 LUT      0.085442
    222 H3         66.5080   60.9074   51.7226 U3         2 LUT     -0.031596
    223 H28        82.6690   66.2816   35.3819 U7         2 LUT      0.084728
    224 H27        85.1493   67.7763   36.3324 U6         2 LUT      0.087291
    225 H26        84.7421   65.7385   34.2614 Q6         2 LUT      0.075325
    226 H24        85.9587   68.1246   31.3196 Q5         2 LUT      0.094482
    227 H23        88.0473   67.8392   32.8935 U3         2 LUT     -0.024869
    228 H22        68.8550   61.3727   52.2366 U2         2 LUT      0.127376
    229 H21        68.7204   62.8501   51.3043 U2         2 LUT      0.127376
    230 H15        74.8813   64.7138   40.1261 T3         2 LUT      0.093200
    231 H14        74.6177   65.2106   43.0968 T2         2 LUT      0.068865
    232 H12        72.8311   64.5856   44.0581 T1         2 LUT      0.095507
    233 H11        71.1680   62.2784   43.0031 U9         2 LUT      0.068930
    234 H10        70.8736   63.8404   45.6309 U8         2 LUT      0.083911
    235 H1         87.5379   65.9469   30.5631 Q1         2 LUT      0.297311
@<TRIPOS>BOND
    1     6     1 1
    2     7     2 1
    3     8     3 1
    4     9     4 1
    5    11     4 1
    6    12     6 1
    7    13     9 1
    8    16     9 1
    9    25     5 1
   10    25    16 1
   11    26    10 1
   12    26    17 1
   13    27    18 1
   14    28    14 1
   15    28    19 1
   16    29    12 1
   17    30    13 1
   18    31    24 1
   19    32     1 1
   20    32    25 1
   21    33    21 1
   22    33    26 1
   23    34    22 1
   24    34    27 1
   25    35    23 1
   26    35    28 1
   27    36    12 1
   28    36    24 1
   29    37    13 1
   30    37    15 1
   31    38    31 1
   32    39    20 1
   33    39    32 1
   34    40     2 1
   35    40    33 1
   36    41     3 1
   37    41    34 1
   38    42     4 1
   39    42    35 1
   40    43    38 1
   41    44     5 1
   42    44    17 1
   43    44    39 1
   44    45    10 1
   45    45    18 1
   46    45    40 1
   47    46    19 1
   48    46    41 1
   49    47    14 1
   50    47    16 1
   51    47    42 1
   52    48    38 1
   53    49    48 1
   54    50    49 1
   55    51    50 1
   56    52    51 1
   57    53    51 1
   58    54    53 1
   59    55    54 1
   60    56    55 1
   61    57    56 1
   62    58    56 1
   63    59    58 1
   64    60    59 1
   65    61    60 1
   66    62    61 1
   67    63    61 1
   68    64    27 1
   69    64    46 1
   70    65     5 1
   71    65    10 1
   72    65    64 1
   73    65    14 1
   74    66    23 1
   75    67    23 1
   76    68    23 1
   77    69    22 1
   78    70    22 1
   79    71    22 1
   80    72    21 1
   81    73    21 1
   82    74    21 1
   83    75    20 1
   84    76    20 1
   85    77    20 1
   86    78    15 1
   87    79    15 1
   88    80    15 1
   89    81     8 1
   90    82     8 1
   91    83     8 1
   92    84     7 1
   93    85     7 1
   94    86     6 1
   95    87     6 1
   96    88     3 1
   97    89     3 1
   98    90     1 1
   99    91     1 1
  100    92    63 1
  101    93    63 1
  102    94    63 1
  103    95    62 1
  104    96    62 1
  105    97    62 1
  106    98    60 1
  107    99    60 1
  108   100    59 1
  109   101    59 1
  110   102    58 1
  111   103    58 1
  112   104    57 1
  113   105    57 1
  114   106    57 1
  115   107    55 1
  116   108    55 1
  117   109    54 1
  118   110    54 1
  119   111    53 1
  120   112    53 1
  121   113    19 1
  122   114    18 1
  123   115    17 1
  124   116     9 1
  125   117     2 1
  126   118    52 1
  127   119    52 1
  128   120    52 1
  129   121    51 1
  130   122    50 1
  131   123    50 1
  132   124    49 1
  133   125    49 1
  134   126    48 1
  135   127    48 1
  136   128    43 1
  137   129    43 1
  138   130    43 1
  139   131    39 1
  140   132    32 1
  141   133    31 1
  142   134    61 1
  143   135    56 1
  144   136    24 1
  145   137    24 1
  146   139   138 1
  147   140   139 1
  148   141   140 1
  149   142   140 1
  150   143   142 1
  151   144   138 1
  152   144   143 1
  153   145   144 1
  154   146   145 1
  155   147   146 1
  156   148   147 1
  157   149   148 1
  158   150   149 1
  159   151   150 1
  160   152   151 1
  161   153   152 1
  162   154   138 1
  163   155   138 1
  164   156   143 1
  165   157   147 1
  166   158   151 1
  167   160   159 1
  168   161   160 1
  169   162   161 1
  170   163   161 1
  171   164   163 1
  172   165   159 1
  173   165   164 1
  174   166   165 1
  175   167   166 1
  176   168   167 1
  177   169   168 1
  178   170   169 1
  179   171   170 1
  180   172   171 1
  181   173   172 1
  182   174   153 1
  183   174   173 1
  184   175   159 1
  185   176   159 1
  186   177   164 1
  187   178   168 1
  188   179   172 1
  189   180   179 1
  190   181   179 1
  191   182   179 1
  192   183   178 1
  193   184   178 1
  194   185   178 1
  195   186   177 1
  196   187   177 1
  197   188   177 1
  198   189   176 1
  199   190   176 1
  200   191   176 1
  201   192   175 1
  202   193   175 1
  203   194   175 1
  204   195   160 1
  205   196   160 1
  206   197   158 1
  207   198   158 1
  208   199   158 1
  209   200   157 1
  210   201   157 1
  211   202   157 1
  212   203   156 1
  213   204   156 1
  214   205   156 1
  215   206   155 1
  216   207   155 1
  217   208   155 1
  218   209   154 1
  219   210   154 1
  220   211   154 1
  221   212   141 1
  222   213   146 1
  223   214   145 1
  224   215   142 1
  225   216   142 1
  226   217   174 1
  227   218   173 1
  228   219   171 1
  229   220   170 1
  230   221   169 1
  231   222   140 1
  232   223   167 1
  233   224   166 1
  234   225   165 1
  235   226   163 1
  236   227   161 1
  237   228   139 1
  238   229   139 1
  239   230   153 1
  240   231   152 1
  241   232   150 1
  242   233   149 1
  243   234   148 1
  244   235   162 1
  245   65    153 1
  246   65    174 1
@<TRIPOS>SUBSTRUCTURE
      1 CLA               1 ****               0 ****  **** 
      2 LUT             138 ****               0 ****  **** 
