@<TRIPOS>MOLECULE
Cpptraj generated mol2 file.
  235   246     2     0     0
SMALL
USER_CHARGES


@<TRIPOS>ATOM
      1 CAA        80.3110   58.8209   34.2365 a2         1 CLA     -0.055900
      2 CAB        80.3454   62.5998   43.0792 c8         1 CLA     -0.148500
      3 CAC        73.0545   58.9043   42.5255 a2         1 CLA     -0.012600
      4 CAD        75.9601   56.2920   35.1672 ck         1 CLA      0.398800
      5 NA         79.2460   58.9737   37.6464 ns         1 CLA     -0.225500
      6 CBA        81.5920   58.8334   33.4118 a2         1 CLA     -0.135000
      7 CBB        80.0203   62.1023   44.3039 c0         1 CLA     -0.395200
      8 CBC        73.0926   57.3471   42.4348 a3         1 CLA     -0.037700
      9 CBD        77.4951   56.7452   35.0354 a1         1 CLA     -0.053900
     10 NB         79.0373   60.7001   40.1346 nm         1 CLA     -0.295700
     11 OBD        75.4342   55.5172   34.3860 o2         1 CLA     -0.494600
     12 CGA        82.0905   57.4152   33.0677 c4         1 CLA      0.827000
     13 CGD        78.4289   55.5111   34.8765 c4         1 CLA      0.655300
     14 ND         76.2838   58.4328   37.9685 nm         1 CLA     -0.291600
     15 CED        79.1323   53.5931   36.0514 a3         1 CLA      0.005400
     16 CHA        77.8179   57.7121   36.1574 cs         1 CLA     -0.123800
     17 CHB        80.9268   60.5418   38.5923 aa         1 CLA     -0.291900
     18 CHC        77.5981   61.1641   42.0100 aa         1 CLA     -0.090400
     19 CHD        74.2888   58.5015   39.5083 aa         1 CLA     -0.052000
     20 CMA        82.4676   58.1048   37.2360 a3         1 CLA     -0.230700
     21 CMB        82.4523   62.4855   40.5031 a3         1 CLA     -0.180800
     22 CMC        75.0839   60.8842   43.8117 a3         1 CLA     -0.134000
     23 CMD        73.2308   56.3295   37.4064 a3         1 CLA     -0.141100
     24 C1         82.9202   55.3232   34.0930 a2         1 CLA      0.023000
     25 C1A        79.0852   58.2185   36.4886 ac         1 CLA     -0.015100
     26 C1B        80.2990   61.0911   39.7645 cr         1 CLA      0.054700
     27 C1C        76.3646   60.4666   41.7068 cn         1 CLA     -0.005600
     28 C1D        74.9863   58.0870   38.3018 ap         1 CLA     -0.047300
     29 O1A        81.9127   56.8112   32.0211 o2         1 CLA     -0.610800
     30 O1D        79.3018   55.3962   34.0679 o2         1 CLA     -0.558200
     31 C2         83.9782   55.0921   35.0866 c8         1 CLA     -0.325100
     32 C2A        80.4084   58.2233   35.6804 a1         1 CLA      0.098600
     33 C2B        80.9939   61.9424   40.6571 cb         1 CLA      0.088500
     34 C2C        75.1299   60.4190   42.4669 cb         1 CLA      0.053700
     35 C2D        74.5129   57.1701   37.2974 cb         1 CLA      0.058900
     36 O2A        82.6908   56.7754   34.1500 o1         1 CLA     -0.437200
     37 O2D        78.2041   54.7162   35.9596 o1         1 CLA     -0.357600
     38 C3         85.3675   55.1611   34.9885 c5         1 CLA      0.031200
     39 C3A        81.3536   58.9248   36.6436 a1         1 CLA      0.166800
     40 C3B        80.1033   61.9324   41.7940 cb         1 CLA      0.035000
     41 C3C        74.2773   59.5153   41.9012 cb         1 CLA     -0.089900
     42 C3D        75.5491   57.0311   36.3662 cb         1 CLA     -0.035900
     43 C4         86.2466   54.0430   34.6958 a3         1 CLA     -0.053300
     44 C4A        80.4329   59.5313   37.6931 ac         1 CLA      0.001800
     45 C4B        78.8119   61.2579   41.3022 cn         1 CLA     -0.020900
     46 C4C        74.8730   59.2366   40.6142 cr         1 CLA     -0.044400
     47 C4D        76.5618   57.7753   36.8406 c6         1 CLA     -0.046000
     48 C5         86.1559   56.3593   35.4817 a2         1 CLA     -0.070400
     49 C6         86.3707   56.3767   36.9876 a2         1 CLA      0.043900
     50 C7         87.1551   57.6475   37.4912 a2         1 CLA     -0.150000
     51 C8         88.0164   57.5166   38.7460 a1         1 CLA      0.064200
     52 C9         89.2639   56.5063   38.4989 a3         1 CLA     -0.259300
     53 C10        87.2611   57.1503   40.0371 a2         1 CLA     -0.071900
     54 C11        88.1467   57.3195   41.3111 a2         1 CLA      0.014500
     55 C12        87.4017   56.8889   42.6087 a2         1 CLA     -0.112100
     56 C13        88.1599   57.0533   43.9709 a1         1 CLA      0.089200
     57 C14        89.5069   56.2581   43.9907 a3         1 CLA     -0.239100
     58 C15        87.3340   56.7024   45.2972 a2         1 CLA     -0.102200
     59 C16        87.7269   57.4179   46.6072 a2         1 CLA      0.023900
     60 C17        87.4631   58.9738   46.7510 a2         1 CLA     -0.105700
     61 C18        86.0432   59.4251   46.3661 a1         1 CLA      0.206800
     62 C19        85.1310   59.0811   47.5519 a3         1 CLA     -0.280100
     63 C20        85.9024   60.9512   46.1405 a3         1 CLA     -0.280100
     64 NC         76.1798   59.7791   40.5608 nx         1 CLA     -0.309200
     65 MG         77.5501   59.5902   38.9931 mg         1 CLA      0.895000
     66 HMD3       72.7856   56.3806   36.4517 dc         1 CLA      0.064300
     67 HMD2       73.3638   55.2678   37.5755 dc         1 CLA      0.064300
     68 HMD1       72.4557   56.7079   38.1324 dc         1 CLA      0.064300
     69 HMC3       75.5895   61.8600   43.8244 dc         1 CLA      0.052100
     70 HMC2       74.0713   60.9691   44.1044 dc         1 CLA      0.052100
     71 HMC1       75.5625   60.1599   44.4753 dc         1 CLA      0.052100
     72 HMB3       82.9529   61.6194   40.7810 dc         1 CLA      0.063600
     73 HMB2       82.6233   62.6712   39.4899 dc         1 CLA      0.063600
     74 HMB1       82.7766   63.2621   41.2082 dc         1 CLA      0.063600
     75 HMA3       83.2966   57.8965   36.5136 dc         1 CLA      0.058300
     76 HMA2       83.0080   58.5899   38.0022 dc         1 CLA      0.058300
     77 HMA1       82.1414   57.1392   37.5479 dc         1 CLA      0.058300
     78 HED3       78.7367   52.8955   36.7659 dc         1 CLA      0.079300
     79 HED2       79.2089   52.9750   35.1125 dc         1 CLA      0.079300
     80 HED1       80.0889   53.9058   36.4229 dc         1 CLA      0.079300
     81 HBC3       72.8747   56.9983   41.4451 dc         1 CLA      0.016300
     82 HBC2       74.1181   57.1496   42.7107 dc         1 CLA      0.016300
     83 HBC1       72.4056   56.8970   43.1629 dc         1 CLA      0.016300
     84 HBB2       80.3351   62.6166   45.2577 da         1 CLA      0.183000
     85 HBB1       79.3629   61.1903   44.4032 da         1 CLA      0.183000
     86 HBA2       81.3473   59.4403   32.5190 dc         1 CLA      0.029400
     87 HBA1       82.3987   59.3652   33.8837 dc         1 CLA      0.029400
     88 HAC2       72.9435   59.2640   43.5303 dc         1 CLA      0.029300
     89 HAC1       72.1191   59.1897   41.9401 dc         1 CLA      0.029300
     90 HAA2       79.7299   58.2598   33.5817 dc         1 CLA      0.028700
     91 HAA1       79.8962   59.8369   34.3677 dc         1 CLA      0.028700
     92 H203       86.6033   61.2838   45.3676 dc         1 CLA      0.065600
     93 H202       84.8922   61.3553   45.8485 dc         1 CLA      0.065600
     94 H201       86.2894   61.3593   47.1001 dc         1 CLA      0.065600
     95 H193       85.0978   58.0403   48.0025 dc         1 CLA      0.065600
     96 H192       85.4353   59.5935   48.3730 dc         1 CLA      0.065600
     97 H191       84.1076   59.4016   47.3736 dc         1 CLA      0.065600
     98 H172       87.6130   59.3598   47.7486 dc         1 CLA      0.027600
     99 H171       88.1652   59.4622   46.0367 dc         1 CLA      0.027600
    100 H162       87.0334   56.9525   47.3336 dc         1 CLA      0.002900
    101 H161       88.7642   57.2707   46.8564 dc         1 CLA      0.002900
    102 H152       86.2548   57.0597   45.2060 dc         1 CLA      0.029100
    103 H151       87.1916   55.5931   45.3593 dc         1 CLA      0.029100
    104 H143       89.2857   55.2284   43.6642 dc         1 CLA      0.063600
    105 H142       90.2517   56.7389   43.3682 dc         1 CLA      0.063600
    106 H141       89.8827   56.2425   44.9944 dc         1 CLA      0.063600
    107 H122       86.4578   57.3480   42.6021 dc         1 CLA      0.032500
    108 H121       87.0283   55.8681   42.5030 dc         1 CLA      0.032500
    109 H112       89.0185   56.7263   41.1998 dc         1 CLA      0.006600
    110 H111       88.5063   58.3508   41.4341 dc         1 CLA      0.006600
    111 H102       86.4187   57.8674   40.0391 dc         1 CLA      0.024100
    112 H101       86.8036   56.1428   40.1399 dc         1 CLA      0.024100
    113 HHD        73.3100   58.1058   39.5228 da         1 CLA      0.174300
    114 HHC        77.5226   61.8104   42.9343 da         1 CLA      0.136800
    115 HHB        82.0103   60.9964   38.3989 da         1 CLA      0.138300
    116 HBD        77.6036   57.1906   34.0311 dc         1 CLA      0.107700
    117 HAB        80.9797   63.4756   43.0589 da         1 CLA      0.155200
    118 H93        89.1484   55.4786   38.8207 dc         1 CLA      0.069500
    119 H92        89.4344   56.5784   37.4200 dc         1 CLA      0.069500
    120 H91        90.0797   56.9637   39.0767 dc         1 CLA      0.069500
    121 H8         88.3125   58.5000   38.7345 dc         1 CLA      0.029300
    122 H72        87.7551   57.7802   36.6195 dc         1 CLA      0.044400
    123 H71        86.5109   58.5484   37.5213 dc         1 CLA      0.044400
    124 H62        85.3899   56.2683   37.5491 dc         1 CLA      0.015600
    125 H61        87.0083   55.5387   37.2021 dc         1 CLA      0.015600
    126 H52        87.1014   56.4959   34.9129 dc         1 CLA      0.033200
    127 H51        85.6359   57.3226   35.3554 dc         1 CLA      0.033200
    128 H43        87.1259   54.1309   35.3452 dc         1 CLA      0.037000
    129 H42        85.7062   53.0563   34.8361 dc         1 CLA      0.037000
    130 H41        86.6483   54.0974   33.7044 dc         1 CLA      0.037000
    131 H3A        81.7814   59.7238   36.0336 dc         1 CLA      0.041100
    132 H2A        80.7165   57.2476   35.6451 dc         1 CLA      0.083100
    133 H2         83.6043   54.7759   36.0790 da         1 CLA      0.180900
    134 H18        85.5794   58.9456   45.4705 dc         1 CLA     -0.003900
    135 H13        88.3756   58.0943   44.0622 dc         1 CLA      0.019700
    136 H12        81.9933   54.7842   34.1361 dc         1 CLA      0.120400
    137 H11        83.3567   55.0961   33.0618 dc         1 CLA      0.120400
    138 C1         69.9246   62.2185   49.1493 Z1         2 LUT      0.509236
    139 C2         68.7570   61.8901   50.1291 Z2         2 LUT     -0.434695
    140 C3         68.0140   63.0456   50.7639 Z3         2 LUT      0.437453
    141 O3         68.5791   63.3918   52.0457 S1         2 LUT     -0.547129
    142 C4         67.9427   64.3933   49.8801 Z4         2 LUT     -0.468603
    143 C5         68.4821   64.2239   48.4672 Z5         2 LUT      0.279246
    144 C6         69.4366   63.2697   48.1037 Z6         2 LUT     -0.305473
    145 C7         69.7264   62.9941   46.6682 Z7         2 LUT      0.069402
    146 C8         70.9786   62.9916   46.1088 Z8         2 LUT     -0.191631
    147 C9         71.3501   62.8487   44.6554 Z9         2 LUT      0.196698
    148 C10        72.4915   63.5438   44.3031 Y1         2 LUT     -0.208611
    149 C11        73.2033   63.5604   43.0375 Y2         2 LUT      0.030784
    150 C12        74.4887   64.0347   42.8899 Y3         2 LUT     -0.220316
    151 C13        75.4364   64.1032   41.8152 Y4         2 LUT      0.215937
    152 C14        76.6002   64.8280   42.1191 Y5         2 LUT     -0.185793
    153 C15        77.7282   64.9312   41.2772 Y6         2 LUT     -0.057835
    154 C16        70.5006   60.8468   48.6458 Y7         2 LUT     -0.405615
    155 C17        70.9683   62.9679   50.0183 Y7         2 LUT     -0.405615
    156 C18        67.8550   65.1938   47.4826 Y9         2 LUT     -0.369639
    157 C19        70.5125   62.0085   43.6871 W1         2 LUT     -0.333362
    158 C20        75.0676   63.4527   40.5532 W2         2 LUT     -0.323439
    159 C21        88.8513   65.8488   34.8997 Z1         2 LUT      0.406104
    160 C22        89.4165   65.2079   33.6227 Z2         2 LUT     -0.404965
    161 C23        89.5390   66.0063   32.3671 Z3         2 LUT      0.391255
    162 O23        90.0818   65.0680   31.3853 S1         2 LUT     -0.528210
    163 C24        88.1432   66.5999   32.1345 W6         2 LUT     -0.258361
    164 C25        87.2479   66.8480   33.0402 Z5         2 LUT      0.133546
    165 C26        87.3831   66.2876   34.5456 W8         2 LUT     -0.147008
    166 C27        86.6916   67.1890   35.5901 Z7         2 LUT      0.023843
    167 C28        85.6611   66.6886   36.2832 Z8         2 LUT     -0.216987
    168 C29        85.0721   67.1684   37.5415 Z9         2 LUT      0.206524
    169 C30        84.0137   66.5486   38.1468 Y1         2 LUT     -0.215556
    170 C31        83.2460   66.9574   39.2987 Y2         2 LUT      0.025142
    171 C32        82.0687   66.2264   39.5329 Y3         2 LUT     -0.212209
    172 C33        81.1304   66.4153   40.6207 Y4         2 LUT      0.240937
    173 C34        79.9696   65.7513   40.6239 Y5         2 LUT     -0.218862
    174 C35        78.9122   65.5515   41.5861 Y6         2 LUT     -0.023547
    175 C36        89.8457   66.9883   35.2846 Y7         2 LUT     -0.393485
    176 C37        88.8595   64.9178   36.0976 Y7         2 LUT     -0.393485
    177 C38        85.9166   67.4485   32.6145 Y9         2 LUT     -0.387526
    178 C39        85.6351   68.3614   38.1457 W1         2 LUT     -0.322618
    179 C40        81.4718   67.3123   41.8610 W2         2 LUT     -0.358472
    180 H403       82.1657   66.6448   42.4592 R7         2 LUT      0.097720
    181 H402       81.8895   68.2410   41.6442 R7         2 LUT      0.097720
    182 H401       80.6159   67.5315   42.5643 R7         2 LUT      0.097720
    183 H393       84.8315   68.9525   38.5389 R4         2 LUT      0.082505
    184 H392       86.3213   68.1021   38.9157 R4         2 LUT      0.082505
    185 H391       86.1209   69.0416   37.4760 R4         2 LUT      0.082505
    186 H383       85.9809   68.0732   31.6771 R1         2 LUT      0.104030
    187 H382       85.1248   66.7063   32.4384 R1         2 LUT      0.104030
    188 H381       85.5654   68.1118   33.4217 R1         2 LUT      0.104030
    189 H373       89.9062   64.5354   36.2157 T4         2 LUT      0.089537
    190 H372       88.5573   65.4014   36.9609 T4         2 LUT      0.089537
    191 H371       88.2362   64.0572   35.7841 T4         2 LUT      0.089537
    192 H363       89.4555   67.6828   36.0718 T4         2 LUT      0.089537
    193 H362       90.7940   66.6080   35.5248 T4         2 LUT      0.089537
    194 H361       90.0514   67.7103   34.4762 T4         2 LUT      0.089537
    195 H222       90.4542   64.9425   33.8733 U2         2 LUT      0.127376
    196 H221       88.8544   64.3450   33.4246 U2         2 LUT      0.127376
    197 H203       74.3328   64.0213   40.0397 R7         2 LUT      0.087068
    198 H202       75.8096   63.2892   39.7630 R7         2 LUT      0.087068
    199 H201       74.7330   62.4808   40.8070 R7         2 LUT      0.087068
    200 H193       69.8449   61.2935   44.2168 R4         2 LUT      0.089716
    201 H192       69.8939   62.6122   43.0024 R4         2 LUT      0.089716
    202 H191       71.0677   61.3306   43.0713 R4         2 LUT      0.089716
    203 H183       68.5474   65.9916   47.2602 R1         2 LUT      0.094572
    204 H182       67.5745   64.7707   46.4504 R1         2 LUT      0.094572
    205 H181       66.9188   65.5361   47.8234 R1         2 LUT      0.094572
    206 H173       70.7643   64.0119   50.1951 T4         2 LUT      0.093752
    207 H172       71.0361   62.5102   50.9728 T4         2 LUT      0.093752
    208 H171       71.9504   62.8798   49.5171 T4         2 LUT      0.093752
    209 H163       71.3159   60.9604   47.9305 T4         2 LUT      0.093752
    210 H162       70.9025   60.2293   49.4206 T4         2 LUT      0.093752
    211 H161       69.7597   60.2561   48.1563 T4         2 LUT      0.093752
    212 HO3        68.2312   62.8239   52.7081 Q1         2 LUT      0.300121
    213 H8         71.7989   63.3979   46.7144 U7         2 LUT      0.080784
    214 H7         68.8221   62.9208   46.0779 U6         2 LUT      0.042190
    215 H42        66.9496   64.8640   49.9464 U5         2 LUT      0.145166
    216 H41        68.5500   65.1973   50.2402 U5         2 LUT      0.145166
    217 H35        79.0437   65.8377   42.6434 T3         2 LUT      0.077919
    218 H34        79.8061   65.1772   39.6984 T2         2 LUT      0.073626
    219 H32        81.8047   65.4967   38.8829 T1         2 LUT      0.092510
    220 H31        83.5518   67.7141   40.0701 U9         2 LUT      0.070048
    221 H30        83.7331   65.6418   37.6704 U8         2 LUT      0.085442
    222 H3         67.0463   62.6330   50.9544 U3         2 LUT     -0.031596
    223 H28        85.2376   65.7340   35.9024 U7         2 LUT      0.084728
    224 H27        87.2070   68.1504   35.7607 U6         2 LUT      0.087291
    225 H26        86.8422   65.3344   34.7855 Q6         2 LUT      0.075325
    226 H24        88.0108   66.9923   31.0654 Q5         2 LUT      0.094482
    227 H23        90.1411   66.8868   32.5144 U3         2 LUT     -0.024869
    228 H22        67.8885   61.4954   49.5162 U2         2 LUT      0.127376
    229 H21        69.1285   61.2489   50.9612 U2         2 LUT      0.127376
    230 H15        77.6476   64.7109   40.2062 T3         2 LUT      0.093200
    231 H14        76.7537   65.1810   43.1492 T2         2 LUT      0.068865
    232 H12        74.7757   64.4910   43.8559 T1         2 LUT      0.095507
    233 H11        72.8121   62.9349   42.3084 U9         2 LUT      0.068930
    234 H10        72.8984   64.1527   45.0593 U8         2 LUT      0.083911
    235 H1         89.8507   65.3219   30.4568 Q1         2 LUT      0.297311
@<TRIPOS>BOND
    1     6     1 1
    2     7     2 1
    3     8     3 1
    4     9     4 1
    5    11     4 1
    6    12     6 1
    7    13     9 1
    8    16     9 1
    9    25     5 1
   10    25    16 1
   11    26    10 1
   12    26    17 1
   13    27    18 1
   14    28    14 1
   15    28    19 1
   16    29    12 1
   17    30    13 1
   18    31    24 1
   19    32     1 1
   20    32    25 1
   21    33    21 1
   22    33    26 1
   23    34    22 1
   24    34    27 1
   25    35    23 1
   26    35    28 1
   27    36    12 1
   28    36    24 1
   29    37    13 1
   30    37    15 1
   31    38    31 1
   32    39    20 1
   33    39    32 1
   34    40     2 1
   35    40    33 1
   36    41     3 1
   37    41    34 1
   38    42     4 1
   39    42    35 1
   40    43    38 1
   41    44     5 1
   42    44    17 1
   43    44    39 1
   44    45    10 1
   45    45    18 1
   46    45    40 1
   47    46    19 1
   48    46    41 1
   49    47    14 1
   50    47    16 1
   51    47    42 1
   52    48    38 1
   53    49    48 1
   54    50    49 1
   55    51    50 1
   56    52    51 1
   57    53    51 1
   58    54    53 1
   59    55    54 1
   60    56    55 1
   61    57    56 1
   62    58    56 1
   63    59    58 1
   64    60    59 1
   65    61    60 1
   66    62    61 1
   67    63    61 1
   68    64    27 1
   69    64    46 1
   70    65     5 1
   71    65    10 1
   72    65    64 1
   73    65    14 1
   74    66    23 1
   75    67    23 1
   76    68    23 1
   77    69    22 1
   78    70    22 1
   79    71    22 1
   80    72    21 1
   81    73    21 1
   82    74    21 1
   83    75    20 1
   84    76    20 1
   85    77    20 1
   86    78    15 1
   87    79    15 1
   88    80    15 1
   89    81     8 1
   90    82     8 1
   91    83     8 1
   92    84     7 1
   93    85     7 1
   94    86     6 1
   95    87     6 1
   96    88     3 1
   97    89     3 1
   98    90     1 1
   99    91     1 1
  100    92    63 1
  101    93    63 1
  102    94    63 1
  103    95    62 1
  104    96    62 1
  105    97    62 1
  106    98    60 1
  107    99    60 1
  108   100    59 1
  109   101    59 1
  110   102    58 1
  111   103    58 1
  112   104    57 1
  113   105    57 1
  114   106    57 1
  115   107    55 1
  116   108    55 1
  117   109    54 1
  118   110    54 1
  119   111    53 1
  120   112    53 1
  121   113    19 1
  122   114    18 1
  123   115    17 1
  124   116     9 1
  125   117     2 1
  126   118    52 1
  127   119    52 1
  128   120    52 1
  129   121    51 1
  130   122    50 1
  131   123    50 1
  132   124    49 1
  133   125    49 1
  134   126    48 1
  135   127    48 1
  136   128    43 1
  137   129    43 1
  138   130    43 1
  139   131    39 1
  140   132    32 1
  141   133    31 1
  142   134    61 1
  143   135    56 1
  144   136    24 1
  145   137    24 1
  146   139   138 1
  147   140   139 1
  148   141   140 1
  149   142   140 1
  150   143   142 1
  151   144   138 1
  152   144   143 1
  153   145   144 1
  154   146   145 1
  155   147   146 1
  156   148   147 1
  157   149   148 1
  158   150   149 1
  159   151   150 1
  160   152   151 1
  161   153   152 1
  162   154   138 1
  163   155   138 1
  164   156   143 1
  165   157   147 1
  166   158   151 1
  167   160   159 1
  168   161   160 1
  169   162   161 1
  170   163   161 1
  171   164   163 1
  172   165   159 1
  173   165   164 1
  174   166   165 1
  175   167   166 1
  176   168   167 1
  177   169   168 1
  178   170   169 1
  179   171   170 1
  180   172   171 1
  181   173   172 1
  182   174   153 1
  183   174   173 1
  184   175   159 1
  185   176   159 1
  186   177   164 1
  187   178   168 1
  188   179   172 1
  189   180   179 1
  190   181   179 1
  191   182   179 1
  192   183   178 1
  193   184   178 1
  194   185   178 1
  195   186   177 1
  196   187   177 1
  197   188   177 1
  198   189   176 1
  199   190   176 1
  200   191   176 1
  201   192   175 1
  202   193   175 1
  203   194   175 1
  204   195   160 1
  205   196   160 1
  206   197   158 1
  207   198   158 1
  208   199   158 1
  209   200   157 1
  210   201   157 1
  211   202   157 1
  212   203   156 1
  213   204   156 1
  214   205   156 1
  215   206   155 1
  216   207   155 1
  217   208   155 1
  218   209   154 1
  219   210   154 1
  220   211   154 1
  221   212   141 1
  222   213   146 1
  223   214   145 1
  224   215   142 1
  225   216   142 1
  226   217   174 1
  227   218   173 1
  228   219   171 1
  229   220   170 1
  230   221   169 1
  231   222   140 1
  232   223   167 1
  233   224   166 1
  234   225   165 1
  235   226   163 1
  236   227   161 1
  237   228   139 1
  238   229   139 1
  239   230   153 1
  240   231   152 1
  241   232   150 1
  242   233   149 1
  243   234   148 1
  244   235   162 1
  245   65    153 1
  246   65    174 1
@<TRIPOS>SUBSTRUCTURE
      1 CLA               1 ****               0 ****  **** 
      2 LUT             138 ****               0 ****  **** 
