@<TRIPOS>MOLECULE
Cpptraj generated mol2 file.
  235   246     2     0     0
SMALL
USER_CHARGES


@<TRIPOS>ATOM
      1 CAA        79.7107   59.4275   34.0405 a2         1 CLA     -0.055900
      2 CAB        78.8168   63.2911   43.0443 c8         1 CLA     -0.148500
      3 CAC        72.3633   58.5835   41.8492 a2         1 CLA     -0.012600
      4 CAD        75.6694   56.7687   34.7603 ck         1 CLA      0.398800
      5 NA         78.5566   59.6250   37.4145 ns         1 CLA     -0.225500
      6 CBA        80.9725   59.4624   33.2138 a2         1 CLA     -0.135000
      7 CBB        79.8484   63.9231   43.6726 c0         1 CLA     -0.395200
      8 CBC        72.7528   57.1833   42.1780 a3         1 CLA     -0.037700
      9 CBD        77.1051   57.1995   34.6150 a1         1 CLA     -0.053900
     10 NB         78.0776   61.3179   39.9096 nm         1 CLA     -0.295700
     11 OBD        75.1571   56.0644   33.8775 o2         1 CLA     -0.494600
     12 CGA        81.5856   58.0740   32.8562 c4         1 CLA      0.827000
     13 CGD        78.0736   55.9957   34.3566 c4         1 CLA      0.655300
     14 ND         75.7301   58.7091   37.6327 nm         1 CLA     -0.291600
     15 CED        78.6447   53.7209   34.7966 a3         1 CLA      0.005400
     16 CHA        77.3986   58.0877   35.9160 cs         1 CLA     -0.123800
     17 CHB        80.1662   60.9704   38.6447 aa         1 CLA     -0.291900
     18 CHC        76.5258   61.6048   41.8011 aa         1 CLA     -0.090400
     19 CHD        73.8361   58.4823   39.1592 aa         1 CLA     -0.052000
     20 CMA        81.9014   58.6641   36.9919 a3         1 CLA     -0.230700
     21 CMB        81.2754   62.8534   40.8759 a3         1 CLA     -0.180800
     22 CMC        74.2484   60.6190   43.6394 a3         1 CLA     -0.134000
     23 CMD        72.8007   56.4105   36.8850 a3         1 CLA     -0.141100
     24 C1         82.4368   56.0117   33.5764 a2         1 CLA      0.023000
     25 C1A        78.5307   58.8100   36.3181 ac         1 CLA     -0.015100
     26 C1B        79.4007   61.5370   39.7073 cr         1 CLA      0.054700
     27 C1C        75.3617   60.8654   41.3339 cn         1 CLA     -0.005600
     28 C1D        74.4822   58.1420   37.9537 ap         1 CLA     -0.047300
     29 O1A        81.5896   57.6787   31.7032 o2         1 CLA     -0.610800
     30 O1D        79.0593   56.0333   33.5987 o2         1 CLA     -0.558200
     31 C2         82.9341   55.2347   34.8101 c8         1 CLA     -0.325100
     32 C2A        79.8010   58.8624   35.4896 a1         1 CLA      0.098600
     33 C2B        79.8464   62.4597   40.7211 cb         1 CLA      0.088500
     34 C2C        74.3075   60.4032   42.1646 cb         1 CLA      0.053700
     35 C2D        74.1023   57.2159   36.9324 cb         1 CLA      0.058900
     36 O2A        82.0846   57.3791   33.9582 o1         1 CLA     -0.437200
     37 O2D        77.6489   54.8102   34.9024 o1         1 CLA     -0.357600
     38 C3         83.6257   54.0834   34.6758 c5         1 CLA      0.031200
     39 C3A        80.7486   59.5882   36.4627 a1         1 CLA      0.166800
     40 C3B        78.8278   62.6028   41.6901 cb         1 CLA      0.035000
     41 C3C        73.5156   59.4651   41.4033 cb         1 CLA     -0.089900
     42 C3D        75.1556   57.2638   36.0635 cb         1 CLA     -0.035900
     43 C4         83.0515   52.6902   34.4865 a3         1 CLA     -0.053300
     44 C4A        79.8080   60.0917   37.5896 ac         1 CLA      0.001800
     45 C4B        77.7560   61.8023   41.1669 cn         1 CLA     -0.020900
     46 C4C        74.2571   59.3226   40.2285 cr         1 CLA     -0.044400
     47 C4D        76.1569   58.0921   36.6348 c6         1 CLA     -0.046000
     48 C5         85.1243   54.2145   34.3752 a2         1 CLA     -0.070400
     49 C6         85.8251   55.4594   34.9541 a2         1 CLA      0.043900
     50 C7         85.6103   55.6073   36.5263 a2         1 CLA     -0.150000
     51 C8         86.3686   56.7417   37.3412 a1         1 CLA      0.064200
     52 C9         87.9153   56.6083   37.0935 a3         1 CLA     -0.259300
     53 C10        86.0378   56.5466   38.8123 a2         1 CLA     -0.071900
     54 C11        86.6120   57.5789   39.7675 a2         1 CLA      0.014500
     55 C12        85.9443   57.4874   41.2134 a2         1 CLA     -0.112100
     56 C13        86.0665   58.7004   42.1426 a1         1 CLA      0.089200
     57 C14        87.5286   59.0663   42.3327 a3         1 CLA     -0.239100
     58 C15        85.3500   58.3336   43.4908 a2         1 CLA     -0.102200
     59 C16        85.1578   59.4469   44.4712 a2         1 CLA      0.023900
     60 C17        84.5820   58.7989   45.7987 a2         1 CLA     -0.105700
     61 C18        84.6117   59.7430   47.0297 a1         1 CLA      0.206800
     62 C19        84.0160   61.0961   46.7541 a3         1 CLA     -0.280100
     63 C20        83.9869   59.0286   48.2820 a3         1 CLA     -0.280100
     64 NC         75.3352   60.1755   40.1958 nx         1 CLA     -0.309200
     65 MG         76.8646   60.1292   38.6802 mg         1 CLA      0.895000
     66 HMD3       72.7895   55.7305   35.9816 dc         1 CLA      0.064300
     67 HMD2       72.6508   55.8369   37.7854 dc         1 CLA      0.064300
     68 HMD1       71.9813   57.1073   36.8983 dc         1 CLA      0.064300
     69 HMC3       73.2723   60.9072   43.8669 dc         1 CLA      0.052100
     70 HMC2       74.5627   59.6583   44.0797 dc         1 CLA      0.052100
     71 HMC1       74.9749   61.3271   44.1869 dc         1 CLA      0.052100
     72 HMB3       81.6544   62.7322   39.8889 dc         1 CLA      0.063600
     73 HMB2       81.4175   63.9026   41.0450 dc         1 CLA      0.063600
     74 HMB1       81.8248   62.1927   41.5407 dc         1 CLA      0.063600
     75 HMA3       81.3978   57.7224   37.3759 dc         1 CLA      0.058300
     76 HMA2       82.6269   58.3289   36.2288 dc         1 CLA      0.058300
     77 HMA1       82.3065   59.1504   37.8781 dc         1 CLA      0.058300
     78 HED3       79.5645   54.1096   35.2439 dc         1 CLA      0.079300
     79 HED2       78.4467   52.7990   35.2982 dc         1 CLA      0.079300
     80 HED1       78.8406   53.4975   33.7956 dc         1 CLA      0.079300
     81 HBC3       71.8557   56.7007   42.5662 dc         1 CLA      0.016300
     82 HBC2       73.0604   56.7276   41.2709 dc         1 CLA      0.016300
     83 HBC1       73.5806   57.1171   42.8442 dc         1 CLA      0.016300
     84 HBB2       79.7535   64.1834   44.7594 da         1 CLA      0.183000
     85 HBB1       80.7947   64.1769   43.1791 da         1 CLA      0.183000
     86 HBA2       80.7005   60.0318   32.3910 dc         1 CLA      0.029400
     87 HBA1       81.6930   60.0682   33.6586 dc         1 CLA      0.029400
     88 HAC2       71.7946   59.1669   42.5601 dc         1 CLA      0.029300
     89 HAC1       71.5366   58.5865   41.1255 dc         1 CLA      0.029300
     90 HAA2       78.9655   58.9743   33.4447 dc         1 CLA      0.028700
     91 HAA1       79.4136   60.5075   34.2095 dc         1 CLA      0.028700
     92 H203       82.9214   58.9574   48.0308 dc         1 CLA      0.065600
     93 H202       84.4226   57.9688   48.4076 dc         1 CLA      0.065600
     94 H201       84.0976   59.5819   49.1815 dc         1 CLA      0.065600
     95 H193       84.4591   61.6672   47.5491 dc         1 CLA      0.065600
     96 H192       84.4362   61.4592   45.8484 dc         1 CLA      0.065600
     97 H191       82.9812   61.1087   46.6941 dc         1 CLA      0.065600
     98 H172       83.5736   58.4850   45.6510 dc         1 CLA      0.027600
     99 H171       85.2154   57.9713   46.1227 dc         1 CLA      0.027600
    100 H162       86.0635   59.9271   44.6730 dc         1 CLA      0.002900
    101 H161       84.4880   60.1937   44.0986 dc         1 CLA      0.002900
    102 H152       84.3759   57.8356   43.3171 dc         1 CLA      0.029100
    103 H151       85.9122   57.6036   44.0989 dc         1 CLA      0.029100
    104 H143       87.4056   60.1047   42.6424 dc         1 CLA      0.063600
    105 H142       88.0457   58.6592   43.1278 dc         1 CLA      0.063600
    106 H141       88.0992   59.1995   41.4312 dc         1 CLA      0.063600
    107 H122       84.8544   57.3062   41.0748 dc         1 CLA      0.032500
    108 H121       86.3074   56.5155   41.5866 dc         1 CLA      0.032500
    109 H112       87.6820   57.2782   39.9384 dc         1 CLA      0.006600
    110 H111       86.5530   58.5657   39.4040 dc         1 CLA      0.006600
    111 H102       84.9736   56.6584   38.8493 dc         1 CLA      0.024100
    112 H101       86.2738   55.5755   39.1424 dc         1 CLA      0.024100
    113 HHD        72.8863   57.9807   39.3318 da         1 CLA      0.174300
    114 HHC        76.5234   62.0500   42.8152 da         1 CLA      0.136800
    115 HHB        81.2140   61.2073   38.6074 da         1 CLA      0.138300
    116 HBD        77.1571   57.9143   33.7825 dc         1 CLA      0.107700
    117 HAB        77.9747   63.1636   43.6871 da         1 CLA      0.155200
    118 H93        88.1350   56.7483   36.0555 dc         1 CLA      0.069500
    119 H92        88.5524   57.4115   37.5182 dc         1 CLA      0.069500
    120 H91        88.3483   55.6953   37.4987 dc         1 CLA      0.069500
    121 H8         85.9542   57.6854   37.0743 dc         1 CLA      0.029300
    122 H72        84.5593   55.8297   36.6908 dc         1 CLA      0.044400
    123 H71        85.7757   54.6018   36.9733 dc         1 CLA      0.044400
    124 H62        86.8624   55.3199   34.6388 dc         1 CLA      0.015600
    125 H61        85.5102   56.3852   34.5219 dc         1 CLA      0.015600
    126 H52        85.7463   53.2927   34.6814 dc         1 CLA      0.033200
    127 H51        85.2018   54.3245   33.3513 dc         1 CLA      0.033200
    128 H43        83.8932   51.9670   34.3414 dc         1 CLA      0.037000
    129 H42        82.4764   52.5550   35.4462 dc         1 CLA      0.037000
    130 H41        82.3386   52.7107   33.7155 dc         1 CLA      0.037000
    131 H3A        81.0413   60.5404   36.0492 dc         1 CLA      0.041100
    132 H2A        80.1552   57.7957   35.3805 dc         1 CLA      0.083100
    133 H2         82.6270   55.6484   35.8008 da         1 CLA      0.180900
    134 H18        85.6919   59.8613   47.2616 dc         1 CLA     -0.003900
    135 H13        85.4831   59.4786   41.6831 dc         1 CLA      0.019700
    136 H12        81.5282   55.5024   33.3389 dc         1 CLA      0.120400
    137 H11        83.2950   55.9308   32.8699 dc         1 CLA      0.120400
    138 C1         68.8106   61.9080   49.6139 Z1         2 LUT      0.509236
    139 C2         67.2713   61.7825   49.9586 Z2         2 LUT     -0.434695
    140 C3         66.5503   63.0077   50.3638 Z3         2 LUT      0.437453
    141 O3         66.5598   63.1993   51.7935 S1         2 LUT     -0.547129
    142 C4         67.1191   64.2477   49.7408 Z4         2 LUT     -0.468603
    143 C5         67.9528   64.0268   48.5232 Z5         2 LUT      0.279246
    144 C6         68.7851   62.9813   48.4510 Z6         2 LUT     -0.305473
    145 C7         69.3425   62.4033   47.1886 Z7         2 LUT      0.069402
    146 C8         70.0273   63.1975   46.3462 Z8         2 LUT     -0.191631
    147 C9         70.6031   62.8500   45.1236 Z9         2 LUT      0.196698
    148 C10        71.5463   63.6883   44.5590 Y1         2 LUT     -0.208611
    149 C11        72.3115   63.5316   43.3684 Y2         2 LUT      0.030784
    150 C12        73.3998   64.2745   43.0328 Y3         2 LUT     -0.220316
    151 C13        74.3204   64.0878   41.9163 Y4         2 LUT      0.215937
    152 C14        75.5011   64.8720   41.8537 Y5         2 LUT     -0.185793
    153 C15        76.4379   65.0369   40.7943 Y6         2 LUT     -0.057835
    154 C16        69.2831   60.4520   49.2866 Y7         2 LUT     -0.405615
    155 C17        69.7067   62.3285   50.8159 Y7         2 LUT     -0.405615
    156 C18        67.3014   64.6352   47.2718 Y9         2 LUT     -0.369639
    157 C19        70.3203   61.5375   44.4948 W1         2 LUT     -0.333362
    158 C20        73.7424   63.4289   40.6833 W2         2 LUT     -0.323439
    159 C21        87.9431   66.6886   35.2212 Z1         2 LUT      0.406104
    160 C22        88.5766   66.1432   33.9216 Z2         2 LUT     -0.404965
    161 C23        88.6588   67.0667   32.7155 Z3         2 LUT      0.391255
    162 O23        89.4669   66.4119   31.7022 S1         2 LUT     -0.528210
    163 C24        87.3876   67.9028   32.5976 W6         2 LUT     -0.258361
    164 C25        86.4058   68.0236   33.5073 Z5         2 LUT      0.133546
    165 C26        86.4776   67.1708   34.8339 W8         2 LUT     -0.147008
    166 C27        85.7387   67.7721   35.9501 Z7         2 LUT      0.023843
    167 C28        84.5187   67.3803   36.3878 Z8         2 LUT     -0.216987
    168 C29        83.8765   67.7425   37.6941 Z9         2 LUT      0.206524
    169 C30        82.7198   67.0129   38.0402 Y1         2 LUT     -0.215556
    170 C31        81.9594   67.2474   39.2342 Y2         2 LUT      0.025142
    171 C32        80.7713   66.5684   39.3181 Y3         2 LUT     -0.212209
    172 C33        79.9139   66.3552   40.4205 Y4         2 LUT      0.240937
    173 C34        78.7042   65.7663   40.1703 Y5         2 LUT     -0.218862
    174 C35        77.6702   65.5132   41.0616 Y6         2 LUT     -0.023547
    175 C36        88.8426   67.7478   35.8062 Y7         2 LUT     -0.393485
    176 C37        87.9043   65.4564   36.2012 Y7         2 LUT     -0.393485
    177 C38        85.0960   68.7621   33.1109 Y9         2 LUT     -0.387526
    178 C39        84.5069   68.8617   38.5625 W1         2 LUT     -0.322618
    179 C40        80.3735   67.0280   41.6510 W2         2 LUT     -0.358472
    180 H403       79.7008   66.7589   42.4625 R7         2 LUT      0.097720
    181 H402       81.3683   66.8786   41.9919 R7         2 LUT      0.097720
    182 H401       80.3366   68.0840   41.4416 R7         2 LUT      0.097720
    183 H393       83.8207   69.2548   39.2932 R4         2 LUT      0.082505
    184 H392       85.4028   68.4551   39.0204 R4         2 LUT      0.082505
    185 H391       84.8586   69.7973   38.0451 R4         2 LUT      0.082505
    186 H383       84.4892   69.1851   33.8879 R1         2 LUT      0.104030
    187 H382       85.1955   69.5053   32.2674 R1         2 LUT      0.104030
    188 H381       84.4335   68.1277   32.5961 R1         2 LUT      0.104030
    189 H373       87.2716   64.6907   35.7684 T4         2 LUT      0.089537
    190 H372       88.8232   64.8504   36.4536 T4         2 LUT      0.089537
    191 H371       87.4477   65.8109   37.2042 T4         2 LUT      0.089537
    192 H363       89.6771   67.2783   36.2270 T4         2 LUT      0.089537
    193 H362       89.2255   68.4252   35.0842 T4         2 LUT      0.089537
    194 H361       88.4746   68.2978   36.6811 T4         2 LUT      0.089537
    195 H222       89.6208   65.9540   34.1813 U2         2 LUT      0.127376
    196 H221       88.0600   65.2972   33.4918 U2         2 LUT      0.127376
    197 H203       73.1059   64.0426   40.0031 R7         2 LUT      0.087068
    198 H202       74.5494   63.0454   40.0591 R7         2 LUT      0.087068
    199 H201       73.2063   62.5706   40.9755 R7         2 LUT      0.087068
    200 H193       71.0380   60.8207   44.7061 R4         2 LUT      0.089716
    201 H192       69.3644   61.0790   44.7372 R4         2 LUT      0.089716
    202 H191       70.2658   61.6540   43.4294 R4         2 LUT      0.089716
    203 H183       67.4902   65.7480   47.3169 R1         2 LUT      0.094572
    204 H182       67.8721   64.4193   46.3722 R1         2 LUT      0.094572
    205 H181       66.2015   64.3921   47.1847 R1         2 LUT      0.094572
    206 H173       69.6079   63.4252   50.9614 T4         2 LUT      0.093752
    207 H172       69.2538   61.9730   51.7889 T4         2 LUT      0.093752
    208 H171       70.7109   62.0434   50.7097 T4         2 LUT      0.093752
    209 H163       68.6315   60.1450   48.4692 T4         2 LUT      0.093752
    210 H162       70.3213   60.5999   48.9168 T4         2 LUT      0.093752
    211 H161       69.0976   59.6926   50.0318 T4         2 LUT      0.093752
    212 HO3        65.8714   62.7254   52.2140 Q1         2 LUT      0.300121
    213 H8         70.0106   64.2409   46.7183 U7         2 LUT      0.080784
    214 H7         69.2318   61.3891   46.7597 U6         2 LUT      0.042190
    215 H42        66.2394   64.8342   49.5077 U5         2 LUT      0.145166
    216 H41        67.6748   64.7920   50.5344 U5         2 LUT      0.145166
    217 H35        77.8695   65.6154   42.1374 T3         2 LUT      0.077919
    218 H34        78.4412   65.5610   39.1628 T2         2 LUT      0.073626
    219 H32        80.4872   66.0123   38.3968 T1         2 LUT      0.092510
    220 H31        82.3496   67.8100   40.0672 U9         2 LUT      0.070048
    221 H30        82.2641   66.2784   37.3301 U8         2 LUT      0.085442
    222 H3         65.5101   62.9629   49.9019 U3         2 LUT     -0.031596
    223 H28        83.9062   66.6962   35.7611 U7         2 LUT      0.084728
    224 H27        86.2633   68.5928   36.5027 U6         2 LUT      0.087291
    225 H26        86.0166   66.2031   34.4741 Q6         2 LUT      0.075325
    226 H24        87.2647   68.3672   31.6185 Q5         2 LUT      0.094482
    227 H23        89.3394   67.9306   32.9833 U3         2 LUT     -0.024869
    228 H22        66.9266   61.4327   48.9932 U2         2 LUT      0.127376
    229 H21        67.1595   61.0783   50.7777 U2         2 LUT      0.127376
    230 H15        76.2715   64.8087   39.7081 T3         2 LUT      0.093200
    231 H14        75.7029   65.5779   42.7146 T2         2 LUT      0.068865
    232 H12        73.6909   65.0764   43.7335 T1         2 LUT      0.095507
    233 H11        72.0862   62.7240   42.6485 U9         2 LUT      0.068930
    234 H10        71.7031   64.6659   44.9983 U8         2 LUT      0.083911
    235 H1         89.1942   66.7116   30.7888 Q1         2 LUT      0.297311
@<TRIPOS>BOND
    1     6     1 1
    2     7     2 1
    3     8     3 1
    4     9     4 1
    5    11     4 1
    6    12     6 1
    7    13     9 1
    8    16     9 1
    9    25     5 1
   10    25    16 1
   11    26    10 1
   12    26    17 1
   13    27    18 1
   14    28    14 1
   15    28    19 1
   16    29    12 1
   17    30    13 1
   18    31    24 1
   19    32     1 1
   20    32    25 1
   21    33    21 1
   22    33    26 1
   23    34    22 1
   24    34    27 1
   25    35    23 1
   26    35    28 1
   27    36    12 1
   28    36    24 1
   29    37    13 1
   30    37    15 1
   31    38    31 1
   32    39    20 1
   33    39    32 1
   34    40     2 1
   35    40    33 1
   36    41     3 1
   37    41    34 1
   38    42     4 1
   39    42    35 1
   40    43    38 1
   41    44     5 1
   42    44    17 1
   43    44    39 1
   44    45    10 1
   45    45    18 1
   46    45    40 1
   47    46    19 1
   48    46    41 1
   49    47    14 1
   50    47    16 1
   51    47    42 1
   52    48    38 1
   53    49    48 1
   54    50    49 1
   55    51    50 1
   56    52    51 1
   57    53    51 1
   58    54    53 1
   59    55    54 1
   60    56    55 1
   61    57    56 1
   62    58    56 1
   63    59    58 1
   64    60    59 1
   65    61    60 1
   66    62    61 1
   67    63    61 1
   68    64    27 1
   69    64    46 1
   70    65     5 1
   71    65    10 1
   72    65    64 1
   73    65    14 1
   74    66    23 1
   75    67    23 1
   76    68    23 1
   77    69    22 1
   78    70    22 1
   79    71    22 1
   80    72    21 1
   81    73    21 1
   82    74    21 1
   83    75    20 1
   84    76    20 1
   85    77    20 1
   86    78    15 1
   87    79    15 1
   88    80    15 1
   89    81     8 1
   90    82     8 1
   91    83     8 1
   92    84     7 1
   93    85     7 1
   94    86     6 1
   95    87     6 1
   96    88     3 1
   97    89     3 1
   98    90     1 1
   99    91     1 1
  100    92    63 1
  101    93    63 1
  102    94    63 1
  103    95    62 1
  104    96    62 1
  105    97    62 1
  106    98    60 1
  107    99    60 1
  108   100    59 1
  109   101    59 1
  110   102    58 1
  111   103    58 1
  112   104    57 1
  113   105    57 1
  114   106    57 1
  115   107    55 1
  116   108    55 1
  117   109    54 1
  118   110    54 1
  119   111    53 1
  120   112    53 1
  121   113    19 1
  122   114    18 1
  123   115    17 1
  124   116     9 1
  125   117     2 1
  126   118    52 1
  127   119    52 1
  128   120    52 1
  129   121    51 1
  130   122    50 1
  131   123    50 1
  132   124    49 1
  133   125    49 1
  134   126    48 1
  135   127    48 1
  136   128    43 1
  137   129    43 1
  138   130    43 1
  139   131    39 1
  140   132    32 1
  141   133    31 1
  142   134    61 1
  143   135    56 1
  144   136    24 1
  145   137    24 1
  146   139   138 1
  147   140   139 1
  148   141   140 1
  149   142   140 1
  150   143   142 1
  151   144   138 1
  152   144   143 1
  153   145   144 1
  154   146   145 1
  155   147   146 1
  156   148   147 1
  157   149   148 1
  158   150   149 1
  159   151   150 1
  160   152   151 1
  161   153   152 1
  162   154   138 1
  163   155   138 1
  164   156   143 1
  165   157   147 1
  166   158   151 1
  167   160   159 1
  168   161   160 1
  169   162   161 1
  170   163   161 1
  171   164   163 1
  172   165   159 1
  173   165   164 1
  174   166   165 1
  175   167   166 1
  176   168   167 1
  177   169   168 1
  178   170   169 1
  179   171   170 1
  180   172   171 1
  181   173   172 1
  182   174   153 1
  183   174   173 1
  184   175   159 1
  185   176   159 1
  186   177   164 1
  187   178   168 1
  188   179   172 1
  189   180   179 1
  190   181   179 1
  191   182   179 1
  192   183   178 1
  193   184   178 1
  194   185   178 1
  195   186   177 1
  196   187   177 1
  197   188   177 1
  198   189   176 1
  199   190   176 1
  200   191   176 1
  201   192   175 1
  202   193   175 1
  203   194   175 1
  204   195   160 1
  205   196   160 1
  206   197   158 1
  207   198   158 1
  208   199   158 1
  209   200   157 1
  210   201   157 1
  211   202   157 1
  212   203   156 1
  213   204   156 1
  214   205   156 1
  215   206   155 1
  216   207   155 1
  217   208   155 1
  218   209   154 1
  219   210   154 1
  220   211   154 1
  221   212   141 1
  222   213   146 1
  223   214   145 1
  224   215   142 1
  225   216   142 1
  226   217   174 1
  227   218   173 1
  228   219   171 1
  229   220   170 1
  230   221   169 1
  231   222   140 1
  232   223   167 1
  233   224   166 1
  234   225   165 1
  235   226   163 1
  236   227   161 1
  237   228   139 1
  238   229   139 1
  239   230   153 1
  240   231   152 1
  241   232   150 1
  242   233   149 1
  243   234   148 1
  244   235   162 1
  245   65    153 1
  246   65    174 1
@<TRIPOS>SUBSTRUCTURE
      1 CLA               1 ****               0 ****  **** 
      2 LUT             138 ****               0 ****  **** 
