@<TRIPOS>MOLECULE
Cpptraj generated mol2 file.
  235   246     2     0     0
SMALL
USER_CHARGES


@<TRIPOS>ATOM
      1 CAA        79.4945   58.0135   35.3058 a2         1 CLA     -0.055900
      2 CAB        79.5969   61.5470   44.3700 c8         1 CLA     -0.148500
      3 CAC        72.4792   57.7779   43.6044 a2         1 CLA     -0.012600
      4 CAD        75.2980   55.5100   36.3937 ck         1 CLA      0.398800
      5 NA         78.4238   58.4636   38.5735 ns         1 CLA     -0.225500
      6 CBA        80.7980   57.9108   34.4045 a2         1 CLA     -0.135000
      7 CBB        80.4551   62.5559   44.6893 c0         1 CLA     -0.395200
      8 CBC        72.6415   56.2732   43.7330 a3         1 CLA     -0.037700
      9 CBD        76.7458   56.0133   36.1133 a1         1 CLA     -0.053900
     10 NB         78.2582   59.9723   41.1633 nm         1 CLA     -0.295700
     11 OBD        74.7303   54.6137   35.7050 o2         1 CLA     -0.494600
     12 CGA        81.3561   56.4966   34.0481 c4         1 CLA      0.827000
     13 CGD        77.6430   54.8827   35.9154 c4         1 CLA      0.655300
     14 ND         75.4254   57.7623   39.1426 nm         1 CLA     -0.291600
     15 CED        78.2300   52.6820   36.9792 a3         1 CLA      0.005400
     16 CHA        77.0467   56.9490   37.2963 cs         1 CLA     -0.123800
     17 CHB        80.1867   59.6171   39.7186 aa         1 CLA     -0.291900
     18 CHC        76.9652   60.1676   43.2973 aa         1 CLA     -0.090400
     19 CHD        73.6285   57.6977   40.7523 aa         1 CLA     -0.052000
     20 CMA        81.8344   57.6977   38.2892 a3         1 CLA     -0.230700
     21 CMB        81.6337   61.3465   41.9561 a3         1 CLA     -0.180800
     22 CMC        74.6957   59.5651   45.2559 a3         1 CLA     -0.134000
     23 CMD        72.3427   55.7092   38.3472 a3         1 CLA     -0.141100
     24 C1         82.2170   54.3840   34.9663 a2         1 CLA      0.023000
     25 C1A        78.3082   57.6227   37.5283 ac         1 CLA     -0.015100
     26 C1B        79.5969   60.0921   40.8454 cr         1 CLA      0.054700
     27 C1C        75.7720   59.5912   42.9435 cn         1 CLA     -0.005600
     28 C1D        74.1858   57.3541   39.4785 ap         1 CLA     -0.047300
     29 O1A        81.4109   56.0577   32.9132 o2         1 CLA     -0.610800
     30 O1D        78.5152   54.7845   35.0316 o2         1 CLA     -0.558200
     31 C2         82.9590   54.0390   36.2824 c8         1 CLA     -0.325100
     32 C2A        79.6169   57.5008   36.7549 a1         1 CLA      0.098600
     33 C2B        80.2382   60.8086   41.9636 cb         1 CLA      0.088500
     34 C2C        74.6554   59.2221   43.8129 cb         1 CLA      0.053700
     35 C2D        73.6573   56.4438   38.4016 cb         1 CLA      0.058900
     36 O2A        81.8684   55.8561   35.1417 o1         1 CLA     -0.437200
     37 O2D        77.5297   53.9641   37.0091 o1         1 CLA     -0.357600
     38 C3         84.1172   53.4065   36.2023 c5         1 CLA      0.031200
     39 C3A        80.5917   58.3528   37.6415 a1         1 CLA      0.166800
     40 C3B        79.3468   60.9522   43.0225 cb         1 CLA      0.035000
     41 C3C        73.7440   58.4862   43.1334 cb         1 CLA     -0.089900
     42 C3D        74.7498   56.2488   37.5469 cb         1 CLA     -0.035900
     43 C4         84.1619   51.8975   36.3284 a3         1 CLA     -0.053300
     44 C4A        79.6938   58.8999   38.6779 ac         1 CLA      0.001800
     45 C4B        78.1419   60.3053   42.5528 cn         1 CLA     -0.020900
     46 C4C        74.2319   58.4136   41.8240 cr         1 CLA     -0.044400
     47 C4D        75.8337   56.9779   38.1057 c6         1 CLA     -0.046000
     48 C5         85.3490   54.1985   35.8661 a2         1 CLA     -0.070400
     49 C6         85.7286   55.4726   36.5870 a2         1 CLA      0.043900
     50 C7         85.7978   55.1704   38.1114 a2         1 CLA     -0.150000
     51 C8         86.1002   56.3372   39.0679 a1         1 CLA      0.064200
     52 C9         87.1446   57.3212   38.5252 a3         1 CLA     -0.259300
     53 C10        86.4347   55.8602   40.5536 a2         1 CLA     -0.071900
     54 C11        86.7592   56.9167   41.5954 a2         1 CLA      0.014500
     55 C12        86.9694   56.3584   43.0373 a2         1 CLA     -0.112100
     56 C13        87.1584   57.3915   44.1536 a1         1 CLA      0.089200
     57 C14        88.5160   58.1574   44.0118 a3         1 CLA     -0.239100
     58 C15        87.1293   56.6832   45.5231 a2         1 CLA     -0.102200
     59 C16        86.9613   57.6588   46.5947 a2         1 CLA      0.023900
     60 C17        86.7662   56.8722   47.8976 a2         1 CLA     -0.105700
     61 C18        86.4422   57.6834   49.1104 a1         1 CLA      0.206800
     62 C19        84.9563   58.1381   49.1253 a3         1 CLA     -0.280100
     63 C20        86.7621   56.9025   50.4617 a3         1 CLA     -0.280100
     64 NC         75.4839   59.0573   41.7317 nx         1 CLA     -0.309200
     65 MG         76.8430   58.9437   40.0478 mg         1 CLA      0.895000
     66 HMD3       72.1316   55.5910   39.4209 dc         1 CLA      0.064300
     67 HMD2       71.5517   56.3035   37.8727 dc         1 CLA      0.064300
     68 HMD1       72.3608   54.7278   37.8990 dc         1 CLA      0.064300
     69 HMC3       73.7656   59.2694   45.8498 dc         1 CLA      0.052100
     70 HMC2       75.5283   59.1051   45.6880 dc         1 CLA      0.052100
     71 HMC1       74.8981   60.6965   45.2600 dc         1 CLA      0.052100
     72 HMB3       81.9544   61.2508   42.9844 dc         1 CLA      0.063600
     73 HMB2       82.2856   60.6967   41.4001 dc         1 CLA      0.063600
     74 HMB1       81.6869   62.3624   41.5670 dc         1 CLA      0.063600
     75 HMA3       82.4661   57.3855   37.4775 dc         1 CLA      0.058300
     76 HMA2       82.4659   58.2761   38.8688 dc         1 CLA      0.058300
     77 HMA1       81.4589   56.8730   38.9303 dc         1 CLA      0.058300
     78 HED3       79.0667   52.6743   37.7495 dc         1 CLA      0.079300
     79 HED2       77.4889   51.9508   37.4099 dc         1 CLA      0.079300
     80 HED1       78.4180   52.1206   36.0129 dc         1 CLA      0.079300
     81 HBC3       73.6059   56.0775   44.2975 dc         1 CLA      0.016300
     82 HBC2       71.7685   55.7733   44.2785 dc         1 CLA      0.016300
     83 HBC1       72.7202   55.9076   42.7505 dc         1 CLA      0.016300
     84 HBB2       80.6355   62.8956   45.7345 da         1 CLA      0.183000
     85 HBB1       80.8381   63.2389   43.8844 da         1 CLA      0.183000
     86 HBA2       80.5565   58.3496   33.4395 dc         1 CLA      0.029400
     87 HBA1       81.6796   58.4308   34.8424 dc         1 CLA      0.029400
     88 HAC2       72.1000   58.1488   44.5980 dc         1 CLA      0.029300
     89 HAC1       71.5570   58.0169   43.0744 dc         1 CLA      0.029300
     90 HAA2       78.8103   57.3450   34.8026 dc         1 CLA      0.028700
     91 HAA1       79.0032   58.9877   35.4872 dc         1 CLA      0.028700
     92 H203       86.7285   57.5231   51.4393 dc         1 CLA      0.065600
     93 H202       86.0232   56.1621   50.5542 dc         1 CLA      0.065600
     94 H201       87.7379   56.4332   50.4903 dc         1 CLA      0.065600
     95 H193       84.8196   58.7691   50.0001 dc         1 CLA      0.065600
     96 H192       84.7657   58.7689   48.2576 dc         1 CLA      0.065600
     97 H191       84.3557   57.2654   49.0371 dc         1 CLA      0.065600
     98 H172       86.0361   56.1365   47.7871 dc         1 CLA      0.027600
     99 H171       87.7410   56.3866   48.1293 dc         1 CLA      0.027600
    100 H162       87.6461   58.4443   46.6793 dc         1 CLA      0.002900
    101 H161       85.9961   58.1169   46.3866 dc         1 CLA      0.002900
    102 H152       86.1922   56.0754   45.4710 dc         1 CLA      0.029100
    103 H151       88.0422   56.0760   45.7436 dc         1 CLA      0.029100
    104 H143       88.5188   58.8019   44.8669 dc         1 CLA      0.063600
    105 H142       89.3902   57.4993   43.8667 dc         1 CLA      0.063600
    106 H141       88.4976   58.8353   43.1516 dc         1 CLA      0.063600
    107 H122       86.0627   55.8559   43.3335 dc         1 CLA      0.032500
    108 H121       87.7452   55.6640   43.0346 dc         1 CLA      0.032500
    109 H112       87.6190   57.5538   41.3349 dc         1 CLA      0.006600
    110 H111       85.8216   57.5641   41.6589 dc         1 CLA      0.006600
    111 H102       85.5368   55.3121   40.8095 dc         1 CLA      0.024100
    112 H101       87.3225   55.2511   40.5498 dc         1 CLA      0.024100
    113 HHD        72.5877   57.3523   40.9191 da         1 CLA      0.174300
    114 HHC        77.0812   60.5888   44.2381 da         1 CLA      0.136800
    115 HHB        81.2453   59.9368   39.5241 da         1 CLA      0.138300
    116 HBD        76.8728   56.4899   35.1510 dc         1 CLA      0.107700
    117 HAB        79.0875   61.0299   45.2113 da         1 CLA      0.155200
    118 H93        86.8773   57.7929   37.5561 dc         1 CLA      0.069500
    119 H92        87.2409   58.0714   39.2277 dc         1 CLA      0.069500
    120 H91        88.0938   56.8332   38.3636 dc         1 CLA      0.069500
    121 H8         85.2133   56.9735   39.1598 dc         1 CLA      0.029300
    122 H72        84.8854   54.7964   38.3636 dc         1 CLA      0.044400
    123 H71        86.4576   54.3683   38.2830 dc         1 CLA      0.044400
    124 H62        86.6474   55.9154   36.2555 dc         1 CLA      0.015600
    125 H61        84.9105   56.1814   36.2841 dc         1 CLA      0.015600
    126 H52        86.1905   53.5740   36.0476 dc         1 CLA      0.033200
    127 H51        85.3061   54.2806   34.7821 dc         1 CLA      0.033200
    128 H43        84.6541   51.6519   37.2356 dc         1 CLA      0.037000
    129 H42        83.1644   51.4435   36.3129 dc         1 CLA      0.037000
    130 H41        84.6617   51.3865   35.4784 dc         1 CLA      0.037000
    131 H3A        80.9744   59.2563   36.9651 dc         1 CLA      0.041100
    132 H2A        79.9794   56.4756   36.7536 dc         1 CLA      0.083100
    133 H2         82.6388   54.4948   37.2562 da         1 CLA      0.180900
    134 H18        87.1144   58.5146   49.1578 dc         1 CLA     -0.003900
    135 H13        86.4023   58.0813   44.0964 dc         1 CLA      0.019700
    136 H12        81.3408   53.7980   34.8610 dc         1 CLA      0.120400
    137 H11        82.8694   54.2275   34.1464 dc         1 CLA      0.120400
    138 C1         68.6747   61.3810   49.8237 Z1         2 LUT      0.509236
    139 C2         68.4103   62.1333   51.1931 Z2         2 LUT     -0.434695
    140 C3         67.1626   62.9547   51.1594 Z3         2 LUT      0.437453
    141 O3         67.0444   63.6310   52.4392 S1         2 LUT     -0.547129
    142 C4         67.2428   63.9967   50.1170 Z4         2 LUT     -0.468603
    143 C5         67.7213   63.5118   48.8014 Z5         2 LUT      0.279246
    144 C6         68.2762   62.3070   48.6475 Z6         2 LUT     -0.305473
    145 C7         68.9961   62.0735   47.3695 Z7         2 LUT      0.069402
    146 C8         70.0532   62.5767   46.7998 Z8         2 LUT     -0.191631
    147 C9         70.9284   62.0907   45.7172 Z9         2 LUT      0.196698
    148 C10        72.0098   62.8545   45.3661 Y1         2 LUT     -0.208611
    149 C11        72.7937   62.6290   44.2016 Y2         2 LUT      0.030784
    150 C12        73.8332   63.4797   43.9625 Y3         2 LUT     -0.220316
    151 C13        74.9177   63.1237   43.0417 Y4         2 LUT      0.215937
    152 C14        76.0501   63.9893   43.0651 Y5         2 LUT     -0.185793
    153 C15        77.2159   63.9629   42.2123 Y6         2 LUT     -0.057835
    154 C16        67.8355   60.0627   49.9705 Y7         2 LUT     -0.405615
    155 C17        70.1533   60.8950   49.6790 Y7         2 LUT     -0.405615
    156 C18        67.5248   64.5720   47.7573 Y9         2 LUT     -0.369639
    157 C19        70.5253   60.7332   45.0676 W1         2 LUT     -0.333362
    158 C20        74.3936   62.5861   41.6780 W2         2 LUT     -0.323439
    159 C21        87.9579   65.4854   35.1434 Z1         2 LUT      0.406104
    160 C22        88.8517   64.6796   34.1271 Z2         2 LUT     -0.404965
    161 C23        89.1060   65.4761   32.8313 Z3         2 LUT      0.391255
    162 O23        89.8132   64.5649   31.9678 S1         2 LUT     -0.528210
    163 C24        87.8503   66.1714   32.3770 W6         2 LUT     -0.258361
    164 C25        86.7450   66.4581   33.0622 Z5         2 LUT      0.133546
    165 C26        86.5812   65.8179   34.4373 W8         2 LUT     -0.147008
    166 C27        85.5949   66.5011   35.2913 Z7         2 LUT      0.023843
    167 C28        84.6374   65.8470   36.0143 Z8         2 LUT     -0.216987
    168 C29        83.9646   66.3319   37.1524 Z9         2 LUT      0.206524
    169 C30        82.9889   65.5206   37.8006 Y1         2 LUT     -0.215556
    170 C31        82.2523   65.7855   38.9952 Y2         2 LUT      0.025142
    171 C32        81.2067   65.0817   39.5748 Y3         2 LUT     -0.212209
    172 C33        80.4315   65.3594   40.8146 Y4         2 LUT      0.240937
    173 C34        79.3042   64.6473   41.0389 Y5         2 LUT     -0.218862
    174 C35        78.3902   64.7229   42.2266 Y6         2 LUT     -0.023547
    175 C36        88.7858   66.7504   35.5971 Y7         2 LUT     -0.393485
    176 C37        87.7583   64.6377   36.4204 Y7         2 LUT     -0.393485
    177 C38        85.5744   67.2748   32.5361 Y9         2 LUT     -0.387526
    178 C39        84.4069   67.7119   37.6010 W1         2 LUT     -0.322618
    179 C40        80.7121   66.6341   41.5726 W2         2 LUT     -0.358472
    180 H403       81.6271   66.5797   42.1916 R7         2 LUT      0.097720
    181 H402       80.9211   67.4835   40.8945 R7         2 LUT      0.097720
    182 H401       79.9302   67.0131   42.2220 R7         2 LUT      0.097720
    183 H393       85.5657   67.7433   37.6742 R4         2 LUT      0.082505
    184 H392       84.1748   68.4257   36.8481 R4         2 LUT      0.082505
    185 H391       84.0917   68.1709   38.5231 R4         2 LUT      0.082505
    186 H383       84.6315   66.6952   32.5735 R1         2 LUT      0.104030
    187 H382       85.5021   68.2405   33.1247 R1         2 LUT      0.104030
    188 H381       85.7353   67.4482   31.4258 R1         2 LUT      0.104030
    189 H373       87.1075   63.8215   36.3943 T4         2 LUT      0.089537
    190 H372       88.8016   64.3017   36.8221 T4         2 LUT      0.089537
    191 H371       87.3970   65.2511   37.2946 T4         2 LUT      0.089537
    192 H363       89.7502   66.4431   36.0409 T4         2 LUT      0.089537
    193 H362       88.9531   67.4160   34.7650 T4         2 LUT      0.089537
    194 H361       88.2406   67.2339   36.3988 T4         2 LUT      0.089537
    195 H222       89.8255   64.3577   34.5767 U2         2 LUT      0.127376
    196 H221       88.2694   63.6936   33.8215 U2         2 LUT      0.127376
    197 H203       73.7106   63.2732   41.1915 R7         2 LUT      0.087068
    198 H202       75.1479   62.4045   40.9482 R7         2 LUT      0.087068
    199 H201       73.8484   61.5955   41.8396 R7         2 LUT      0.087068
    200 H193       69.5321   60.5565   44.6867 R4         2 LUT      0.089716
    201 H192       71.2360   60.4233   44.3149 R4         2 LUT      0.089716
    202 H191       70.5450   59.8985   45.7500 R4         2 LUT      0.089716
    203 H183       68.1412   65.4398   47.8632 R1         2 LUT      0.094572
    204 H182       67.7867   64.1895   46.7961 R1         2 LUT      0.094572
    205 H181       66.4964   64.9776   47.7611 R1         2 LUT      0.094572
    206 H173       70.8895   61.6351   49.4379 T4         2 LUT      0.093752
    207 H172       70.4341   60.5228   50.6780 T4         2 LUT      0.093752
    208 H171       70.2829   60.0915   48.9788 T4         2 LUT      0.093752
    209 H163       68.2956   59.4270   50.7417 T4         2 LUT      0.093752
    210 H162       66.7944   60.3894   50.0944 T4         2 LUT      0.093752
    211 H161       67.7194   59.5281   49.0529 T4         2 LUT      0.093752
    212 HO3        66.4794   63.1980   53.0910 Q1         2 LUT      0.300121
    213 H8         70.3658   63.4934   47.2768 U7         2 LUT      0.080784
    214 H7         68.8014   61.0620   47.0016 U6         2 LUT      0.042190
    215 H42        66.2692   64.5573   49.9325 U5         2 LUT      0.145166
    216 H41        68.0503   64.7707   50.3603 U5         2 LUT      0.145166
    217 H35        78.4527   65.4851   42.9932 T3         2 LUT      0.077919
    218 H34        78.9261   63.9137   40.2485 T2         2 LUT      0.073626
    219 H32        80.9012   64.2030   38.9513 T1         2 LUT      0.092510
    220 H31        82.4940   66.7210   39.4958 U9         2 LUT      0.070048
    221 H30        82.7971   64.5121   37.3370 U8         2 LUT      0.085442
    222 H3         66.4895   62.1908   50.7695 U3         2 LUT     -0.031596
    223 H28        84.3825   64.8217   35.7934 U7         2 LUT      0.084728
    224 H27        85.9227   67.5506   35.5312 U6         2 LUT      0.087291
    225 H26        86.1641   64.8242   34.0719 Q6         2 LUT      0.075325
    226 H24        87.8527   66.6835   31.4321 Q5         2 LUT      0.094482
    227 H23        89.9104   66.2187   33.1274 U3         2 LUT     -0.024869
    228 H22        68.2368   61.3974   52.0125 U2         2 LUT      0.127376
    229 H21        69.1600   62.8659   51.4316 U2         2 LUT      0.127376
    230 H15        77.1497   63.3069   41.2807 T3         2 LUT      0.093200
    231 H14        76.0054   64.6780   43.8900 T2         2 LUT      0.068865
    232 H12        73.9591   64.2549   44.6801 T1         2 LUT      0.095507
    233 H11        72.6184   61.7877   43.6193 U9         2 LUT      0.068930
    234 H10        72.1633   63.7889   45.8873 U8         2 LUT      0.083911
    235 H1         89.3106   64.2124   31.2318 Q1         2 LUT      0.297311
@<TRIPOS>BOND
    1     6     1 1
    2     7     2 1
    3     8     3 1
    4     9     4 1
    5    11     4 1
    6    12     6 1
    7    13     9 1
    8    16     9 1
    9    25     5 1
   10    25    16 1
   11    26    10 1
   12    26    17 1
   13    27    18 1
   14    28    14 1
   15    28    19 1
   16    29    12 1
   17    30    13 1
   18    31    24 1
   19    32     1 1
   20    32    25 1
   21    33    21 1
   22    33    26 1
   23    34    22 1
   24    34    27 1
   25    35    23 1
   26    35    28 1
   27    36    12 1
   28    36    24 1
   29    37    13 1
   30    37    15 1
   31    38    31 1
   32    39    20 1
   33    39    32 1
   34    40     2 1
   35    40    33 1
   36    41     3 1
   37    41    34 1
   38    42     4 1
   39    42    35 1
   40    43    38 1
   41    44     5 1
   42    44    17 1
   43    44    39 1
   44    45    10 1
   45    45    18 1
   46    45    40 1
   47    46    19 1
   48    46    41 1
   49    47    14 1
   50    47    16 1
   51    47    42 1
   52    48    38 1
   53    49    48 1
   54    50    49 1
   55    51    50 1
   56    52    51 1
   57    53    51 1
   58    54    53 1
   59    55    54 1
   60    56    55 1
   61    57    56 1
   62    58    56 1
   63    59    58 1
   64    60    59 1
   65    61    60 1
   66    62    61 1
   67    63    61 1
   68    64    27 1
   69    64    46 1
   70    65     5 1
   71    65    10 1
   72    65    64 1
   73    65    14 1
   74    66    23 1
   75    67    23 1
   76    68    23 1
   77    69    22 1
   78    70    22 1
   79    71    22 1
   80    72    21 1
   81    73    21 1
   82    74    21 1
   83    75    20 1
   84    76    20 1
   85    77    20 1
   86    78    15 1
   87    79    15 1
   88    80    15 1
   89    81     8 1
   90    82     8 1
   91    83     8 1
   92    84     7 1
   93    85     7 1
   94    86     6 1
   95    87     6 1
   96    88     3 1
   97    89     3 1
   98    90     1 1
   99    91     1 1
  100    92    63 1
  101    93    63 1
  102    94    63 1
  103    95    62 1
  104    96    62 1
  105    97    62 1
  106    98    60 1
  107    99    60 1
  108   100    59 1
  109   101    59 1
  110   102    58 1
  111   103    58 1
  112   104    57 1
  113   105    57 1
  114   106    57 1
  115   107    55 1
  116   108    55 1
  117   109    54 1
  118   110    54 1
  119   111    53 1
  120   112    53 1
  121   113    19 1
  122   114    18 1
  123   115    17 1
  124   116     9 1
  125   117     2 1
  126   118    52 1
  127   119    52 1
  128   120    52 1
  129   121    51 1
  130   122    50 1
  131   123    50 1
  132   124    49 1
  133   125    49 1
  134   126    48 1
  135   127    48 1
  136   128    43 1
  137   129    43 1
  138   130    43 1
  139   131    39 1
  140   132    32 1
  141   133    31 1
  142   134    61 1
  143   135    56 1
  144   136    24 1
  145   137    24 1
  146   139   138 1
  147   140   139 1
  148   141   140 1
  149   142   140 1
  150   143   142 1
  151   144   138 1
  152   144   143 1
  153   145   144 1
  154   146   145 1
  155   147   146 1
  156   148   147 1
  157   149   148 1
  158   150   149 1
  159   151   150 1
  160   152   151 1
  161   153   152 1
  162   154   138 1
  163   155   138 1
  164   156   143 1
  165   157   147 1
  166   158   151 1
  167   160   159 1
  168   161   160 1
  169   162   161 1
  170   163   161 1
  171   164   163 1
  172   165   159 1
  173   165   164 1
  174   166   165 1
  175   167   166 1
  176   168   167 1
  177   169   168 1
  178   170   169 1
  179   171   170 1
  180   172   171 1
  181   173   172 1
  182   174   153 1
  183   174   173 1
  184   175   159 1
  185   176   159 1
  186   177   164 1
  187   178   168 1
  188   179   172 1
  189   180   179 1
  190   181   179 1
  191   182   179 1
  192   183   178 1
  193   184   178 1
  194   185   178 1
  195   186   177 1
  196   187   177 1
  197   188   177 1
  198   189   176 1
  199   190   176 1
  200   191   176 1
  201   192   175 1
  202   193   175 1
  203   194   175 1
  204   195   160 1
  205   196   160 1
  206   197   158 1
  207   198   158 1
  208   199   158 1
  209   200   157 1
  210   201   157 1
  211   202   157 1
  212   203   156 1
  213   204   156 1
  214   205   156 1
  215   206   155 1
  216   207   155 1
  217   208   155 1
  218   209   154 1
  219   210   154 1
  220   211   154 1
  221   212   141 1
  222   213   146 1
  223   214   145 1
  224   215   142 1
  225   216   142 1
  226   217   174 1
  227   218   173 1
  228   219   171 1
  229   220   170 1
  230   221   169 1
  231   222   140 1
  232   223   167 1
  233   224   166 1
  234   225   165 1
  235   226   163 1
  236   227   161 1
  237   228   139 1
  238   229   139 1
  239   230   153 1
  240   231   152 1
  241   232   150 1
  242   233   149 1
  243   234   148 1
  244   235   162 1
  245   65    153 1
  246   65    174 1
@<TRIPOS>SUBSTRUCTURE
      1 CLA               1 ****               0 ****  **** 
      2 LUT             138 ****               0 ****  **** 
