@<TRIPOS>MOLECULE
Cpptraj generated mol2 file.
  235   246     2     0     0
SMALL
USER_CHARGES


@<TRIPOS>ATOM
      1 CAA        78.0103   58.9313   35.3257 a2         1 CLA     -0.055900
      2 CAB        78.1148   63.2673   43.9448 c8         1 CLA     -0.148500
      3 CAC        70.9160   59.3940   43.8580 a2         1 CLA     -0.012600
      4 CAD        73.6843   56.5764   36.5249 ck         1 CLA      0.398800
      5 NA         76.8374   59.5782   38.6394 ns         1 CLA     -0.225500
      6 CBA        79.3406   58.7560   34.5284 a2         1 CLA     -0.135000
      7 CBB        79.2182   63.1562   44.7202 c0         1 CLA     -0.395200
      8 CBC        70.5686   57.9923   43.6046 a3         1 CLA     -0.037700
      9 CBD        75.1404   57.0345   36.2034 a1         1 CLA     -0.053900
     10 NB         76.7694   61.2446   41.0784 nm         1 CLA     -0.295700
     11 OBD        73.0695   55.7865   35.7558 o2         1 CLA     -0.494600
     12 CGA        79.7902   57.3455   34.0810 c4         1 CLA      0.827000
     13 CGD        76.1753   55.9059   36.1722 c4         1 CLA      0.655300
     14 ND         74.0889   58.6966   39.3077 nm         1 CLA     -0.291600
     15 CED        77.1552   54.2026   37.6005 a3         1 CLA      0.005400
     16 CHA        75.4863   58.0173   37.3418 cs         1 CLA     -0.123800
     17 CHB        78.6437   60.9406   39.5631 aa         1 CLA     -0.291900
     18 CHC        75.4084   61.6940   43.0209 aa         1 CLA     -0.090400
     19 CHD        72.2252   58.7014   40.9864 aa         1 CLA     -0.052000
     20 CMA        80.1757   58.5400   38.2246 a3         1 CLA     -0.230700
     21 CMB        80.1219   62.8733   41.5453 a3         1 CLA     -0.180800
     22 CMC        73.1363   61.4777   45.1334 a3         1 CLA     -0.134000
     23 CMD        70.9202   56.5260   38.8115 a3         1 CLA     -0.141100
     24 C1         80.5704   55.2055   34.8401 a2         1 CLA      0.023000
     25 C1A        76.6923   58.7449   37.5934 ac         1 CLA     -0.015100
     26 C1B        78.0693   61.5018   40.6982 cr         1 CLA      0.054700
     27 C1C        74.2132   60.9598   42.8267 cn         1 CLA     -0.005600
     28 C1D        72.7769   58.3597   39.6902 ap         1 CLA     -0.047300
     29 O1A        79.7149   56.9016   32.9343 o2         1 CLA     -0.610800
     30 O1D        76.9669   55.6933   35.2678 o2         1 CLA     -0.558200
     31 C2         80.9391   54.4082   36.0744 c8         1 CLA     -0.325100
     32 C2A        78.0102   58.5102   36.8139 a1         1 CLA      0.098600
     33 C2B        78.7087   62.3607   41.6738 cb         1 CLA      0.088500
     34 C2C        73.1183   60.8107   43.8027 cb         1 CLA      0.053700
     35 C2D        72.2655   57.3267   38.7308 cb         1 CLA      0.058900
     36 O2A        80.1721   56.5812   35.1815 o1         1 CLA     -0.437200
     37 O2D        76.1489   55.2400   37.3766 o1         1 CLA     -0.357600
     38 C3         82.0304   54.4666   36.8773 c5         1 CLA      0.031200
     39 C3A        78.9971   59.3507   37.6803 a1         1 CLA      0.166800
     40 C3B        77.8263   62.5133   42.7141 cb         1 CLA      0.035000
     41 C3C        72.1834   59.9455   43.2381 cb         1 CLA     -0.089900
     42 C3D        73.3049   57.2432   37.8116 cb         1 CLA     -0.035900
     43 C4         83.1800   53.5460   36.5504 a3         1 CLA     -0.053300
     44 C4A        78.1018   60.0071   38.7077 ac         1 CLA      0.001800
     45 C4B        76.5998   61.8053   42.3454 cn         1 CLA     -0.020900
     46 C4C        72.7230   59.6391   41.9109 cr         1 CLA     -0.044400
     47 C4D        74.3215   58.1204   38.1260 c6         1 CLA     -0.046000
     48 C5         82.1451   55.3287   38.1656 a2         1 CLA     -0.070400
     49 C6         83.2775   56.3205   38.2521 a2         1 CLA      0.043900
     50 C7         83.2684   57.0710   39.6141 a2         1 CLA     -0.150000
     51 C8         84.1559   58.3254   39.6718 a1         1 CLA      0.064200
     52 C9         85.7211   58.0516   39.2574 a3         1 CLA     -0.259300
     53 C10        84.1191   59.0846   40.9987 a2         1 CLA     -0.071900
     54 C11        82.7254   59.6527   41.4763 a2         1 CLA      0.014500
     55 C12        82.7182   60.4302   42.7635 a2         1 CLA     -0.112100
     56 C13        83.4850   59.7738   43.9575 a1         1 CLA      0.089200
     57 C14        82.7715   58.4891   44.5216 a3         1 CLA     -0.239100
     58 C15        83.9423   60.7776   45.1224 a2         1 CLA     -0.102200
     59 C16        82.7487   61.6329   45.7325 a2         1 CLA      0.023900
     60 C17        83.5249   62.6592   46.7190 a2         1 CLA     -0.105700
     61 C18        82.5550   63.3582   47.6887 a1         1 CLA      0.206800
     62 C19        81.8602   62.4240   48.7167 a3         1 CLA     -0.280100
     63 C20        83.0152   64.6848   48.3750 a3         1 CLA     -0.280100
     64 NC         73.9557   60.2640   41.7070 nx         1 CLA     -0.309200
     65 MG         75.3213   60.1034   40.0575 mg         1 CLA      0.895000
     66 HMD3       71.0723   55.7616   38.1306 dc         1 CLA      0.064300
     67 HMD2       70.6703   56.0619   39.7810 dc         1 CLA      0.064300
     68 HMD1       70.0931   57.1462   38.4186 dc         1 CLA      0.064300
     69 HMC3       72.2477   61.1807   45.6783 dc         1 CLA      0.052100
     70 HMC2       74.0826   61.1913   45.6490 dc         1 CLA      0.052100
     71 HMC1       73.1944   62.5724   45.1082 dc         1 CLA      0.052100
     72 HMB3       80.3543   63.5569   42.3987 dc         1 CLA      0.063600
     73 HMB2       80.7989   61.9436   41.5109 dc         1 CLA      0.063600
     74 HMB1       80.0867   63.4963   40.6050 dc         1 CLA      0.063600
     75 HMA3       79.8560   57.5647   38.6152 dc         1 CLA      0.058300
     76 HMA2       80.9006   58.3919   37.4210 dc         1 CLA      0.058300
     77 HMA1       80.6948   59.1322   38.9899 dc         1 CLA      0.058300
     78 HED3       76.8004   53.4939   38.3365 dc         1 CLA      0.079300
     79 HED2       77.6117   53.8095   36.6864 dc         1 CLA      0.079300
     80 HED1       77.9924   54.6930   38.1737 dc         1 CLA      0.079300
     81 HBC3       70.0766   57.7770   42.6515 dc         1 CLA      0.016300
     82 HBC2       71.5281   57.5954   43.4444 dc         1 CLA      0.016300
     83 HBC1       70.0214   57.5784   44.3896 dc         1 CLA      0.016300
     84 HBB2       79.4143   63.8353   45.5372 da         1 CLA      0.183000
     85 HBB1       80.0648   62.4874   44.4662 da         1 CLA      0.183000
     86 HBA2       79.1939   59.3259   33.6127 dc         1 CLA      0.029400
     87 HBA1       80.1425   59.1476   35.2188 dc         1 CLA      0.029400
     88 HAC2       70.8936   59.6562   44.8573 dc         1 CLA      0.029300
     89 HAC1       70.0567   60.0480   43.6275 dc         1 CLA      0.029300
     90 HAA2       77.3048   58.3146   34.7650 dc         1 CLA      0.028700
     91 HAA1       77.6855   59.9535   35.1086 dc         1 CLA      0.028700
     92 H203       83.7023   64.5295   49.1998 dc         1 CLA      0.065600
     93 H202       83.4772   65.2633   47.6747 dc         1 CLA      0.065600
     94 H201       82.2055   65.3235   48.7073 dc         1 CLA      0.065600
     95 H193       82.4652   62.0821   49.5851 dc         1 CLA      0.065600
     96 H192       80.9254   62.8827   49.0470 dc         1 CLA      0.065600
     97 H191       81.6517   61.4511   48.2342 dc         1 CLA      0.065600
     98 H172       84.3631   62.1317   47.2431 dc         1 CLA      0.027600
     99 H171       83.8920   63.4204   46.0304 dc         1 CLA      0.027600
    100 H162       82.2235   62.2114   44.9094 dc         1 CLA      0.002900
    101 H161       82.0823   61.0896   46.3524 dc         1 CLA      0.002900
    102 H152       84.4290   60.2699   45.9142 dc         1 CLA      0.029100
    103 H151       84.6416   61.4206   44.6128 dc         1 CLA      0.029100
    104 H143       82.6707   57.6435   43.7551 dc         1 CLA      0.063600
    105 H142       83.2677   57.9826   45.3592 dc         1 CLA      0.063600
    106 H141       81.7635   58.7280   44.8927 dc         1 CLA      0.063600
    107 H122       83.0312   61.4144   42.4754 dc         1 CLA      0.032500
    108 H121       81.7127   60.5194   43.0824 dc         1 CLA      0.032500
    109 H112       82.2202   60.2405   40.6694 dc         1 CLA      0.006600
    110 H111       82.1106   58.7908   41.6271 dc         1 CLA      0.006600
    111 H102       84.5091   58.3808   41.7985 dc         1 CLA      0.024100
    112 H101       84.8798   59.8863   40.9552 dc         1 CLA      0.024100
    113 HHD        71.3135   58.1591   41.1989 da         1 CLA      0.174300
    114 HHC        75.4348   62.2810   43.9472 da         1 CLA      0.136800
    115 HHB        79.7142   61.2332   39.5460 da         1 CLA      0.138300
    116 HBD        75.1409   57.6725   35.3443 dc         1 CLA      0.107700
    117 HAB        77.3475   64.0042   44.1804 da         1 CLA      0.155200
    118 H93        86.3071   57.5811   40.0310 dc         1 CLA      0.069500
    119 H92        85.7689   57.3944   38.3834 dc         1 CLA      0.069500
    120 H91        86.1496   59.0358   39.0769 dc         1 CLA      0.069500
    121 H8         83.7543   59.0723   38.9519 dc         1 CLA      0.029300
    122 H72        82.2473   57.4555   39.8313 dc         1 CLA      0.044400
    123 H71        83.5513   56.2408   40.3314 dc         1 CLA      0.044400
    124 H62        84.1217   55.7583   38.1314 dc         1 CLA      0.015600
    125 H61        83.0952   57.0614   37.4977 dc         1 CLA      0.015600
    126 H52        81.1777   55.8157   38.3561 dc         1 CLA      0.033200
    127 H51        82.1728   54.5685   38.9605 dc         1 CLA      0.033200
    128 H43        82.9461   52.9874   35.6217 dc         1 CLA      0.037000
    129 H42        84.1778   53.9329   36.3182 dc         1 CLA      0.037000
    130 H41        83.4178   52.8206   37.3446 dc         1 CLA      0.037000
    131 H3A        79.4158   60.1458   37.0832 dc         1 CLA      0.041100
    132 H2A        78.1756   57.4238   37.0056 dc         1 CLA      0.083100
    133 H2         80.2804   53.6389   36.4007 da         1 CLA      0.180900
    134 H18        81.8661   63.6632   46.9345 dc         1 CLA     -0.003900
    135 H13        84.5123   59.4596   43.6622 dc         1 CLA      0.019700
    136 H12        79.7505   54.7611   34.3358 dc         1 CLA      0.120400
    137 H11        81.3700   55.2203   34.1855 dc         1 CLA      0.120400
    138 C1         66.5766   63.6023   51.2063 Z1         2 LUT      0.509236
    139 C2         66.6119   64.9292   51.9630 Z2         2 LUT     -0.434695
    140 C3         65.2908   65.6735   52.0093 Z3         2 LUT      0.437453
    141 O3         65.6417   67.0336   52.3294 S1         2 LUT     -0.547129
    142 C4         64.6479   65.6484   50.6010 Z4         2 LUT     -0.468603
    143 C5         65.3444   65.0222   49.4716 Z5         2 LUT      0.279246
    144 C6         66.2594   64.0086   49.7449 Z6         2 LUT     -0.305473
    145 C7         67.2151   63.4814   48.6863 Z7         2 LUT      0.069402
    146 C8         68.0297   64.1688   47.8741 Z8         2 LUT     -0.191631
    147 C9         68.8755   63.5389   46.8130 Z9         2 LUT      0.196698
    148 C10        69.8357   64.2986   46.2005 Y1         2 LUT     -0.208611
    149 C11        70.6868   64.1441   45.0577 Y2         2 LUT      0.030784
    150 C12        71.6797   64.8823   44.5578 Y3         2 LUT     -0.220316
    151 C13        72.4503   64.6680   43.3278 Y4         2 LUT      0.215937
    152 C14        73.5321   65.4792   43.2755 Y5         2 LUT     -0.185793
    153 C15        74.6224   65.4507   42.3207 Y6         2 LUT     -0.057835
    154 C16        65.5327   62.7553   51.7781 Y7         2 LUT     -0.405615
    155 C17        67.9513   63.0238   51.4352 Y7         2 LUT     -0.405615
    156 C18        65.0868   65.7524   48.1667 Y9         2 LUT     -0.369639
    157 C19        68.4814   62.2665   46.1971 W1         2 LUT     -0.333362
    158 C20        72.0481   63.9160   42.0760 W2         2 LUT     -0.323439
    159 C21        86.2106   66.2470   36.4275 Z1         2 LUT      0.406104
    160 C22        86.9265   65.5403   35.2165 Z2         2 LUT     -0.404965
    161 C23        87.1766   66.3578   33.9559 Z3         2 LUT      0.391255
    162 O23        87.6626   65.4231   32.8951 S1         2 LUT     -0.528210
    163 C24        85.8677   67.0570   33.5979 W6         2 LUT     -0.258361
    164 C25        84.8480   67.2188   34.4314 Z5         2 LUT      0.133546
    165 C26        84.7957   66.5432   35.8516 W8         2 LUT     -0.147008
    166 C27        83.8916   67.3076   36.8704 Z7         2 LUT      0.023843
    167 C28        82.6814   66.9499   37.3451 Z8         2 LUT     -0.216987
    168 C29        82.0346   67.4293   38.6133 Z9         2 LUT      0.206524
    169 C30        80.8198   66.8754   38.9405 Y1         2 LUT     -0.215556
    170 C31        80.1193   67.0172   40.2321 Y2         2 LUT      0.025142
    171 C32        78.9858   66.2944   40.5872 Y3         2 LUT     -0.212209
    172 C33        78.1981   66.5091   41.7143 Y4         2 LUT      0.240937
    173 C34        76.9134   65.9026   41.6966 Y5         2 LUT     -0.218862
    174 C35        75.8634   65.9231   42.6751 Y6         2 LUT     -0.023547
    175 C36        87.0527   67.3880   36.9877 Y7         2 LUT     -0.393485
    176 C37        86.1569   65.2288   37.5740 Y7         2 LUT     -0.393485
    177 C38        83.7002   68.0976   34.0587 Y9         2 LUT     -0.387526
    178 C39        82.7886   68.4386   39.5070 W1         2 LUT     -0.322618
    179 C40        78.5490   67.6574   42.6205 W2         2 LUT     -0.358472
    180 H403       79.5607   67.7521   42.9846 R7         2 LUT      0.097720
    181 H402       78.4468   68.5384   42.0043 R7         2 LUT      0.097720
    182 H401       77.9646   67.7537   43.4950 R7         2 LUT      0.097720
    183 H393       83.3125   69.1799   38.9277 R4         2 LUT      0.082505
    184 H392       82.1418   69.0437   40.0756 R4         2 LUT      0.082505
    185 H391       83.5167   67.9800   40.2604 R4         2 LUT      0.082505
    186 H383       83.9980   68.7355   33.2487 R1         2 LUT      0.104030
    187 H382       82.9347   67.4391   33.6953 R1         2 LUT      0.104030
    188 H381       83.3179   68.6443   34.8764 R1         2 LUT      0.104030
    189 H373       87.0647   65.0027   38.1724 T4         2 LUT      0.089537
    190 H372       85.3408   65.5202   38.1456 T4         2 LUT      0.089537
    191 H371       85.9694   64.2404   37.1425 T4         2 LUT      0.089537
    192 H363       86.9829   68.1720   36.2869 T4         2 LUT      0.089537
    193 H362       86.7006   67.7977   37.9116 T4         2 LUT      0.089537
    194 H361       88.1126   67.0682   37.0898 T4         2 LUT      0.089537
    195 H222       87.8289   64.9727   35.5826 U2         2 LUT      0.127376
    196 H221       86.2662   64.6162   35.0075 U2         2 LUT      0.127376
    197 H203       72.9787   63.3600   41.7643 R7         2 LUT      0.087068
    198 H202       71.2927   63.1446   42.2317 R7         2 LUT      0.087068
    199 H201       71.7496   64.5643   41.1733 R7         2 LUT      0.087068
    200 H193       69.0522   61.4309   46.6000 R4         2 LUT      0.089716
    201 H192       67.3643   62.0947   46.3215 R4         2 LUT      0.089716
    202 H191       68.4837   62.4143   45.1216 R4         2 LUT      0.089716
    203 H183       64.0967   66.2196   48.1905 R1         2 LUT      0.094572
    204 H182       65.7547   66.6132   48.0064 R1         2 LUT      0.094572
    205 H181       65.1791   65.0325   47.2689 R1         2 LUT      0.094572
    206 H173       68.1345   62.7866   52.4328 T4         2 LUT      0.093752
    207 H172       68.0034   62.0309   50.9234 T4         2 LUT      0.093752
    208 H171       68.7555   63.6209   51.0413 T4         2 LUT      0.093752
    209 H163       65.3566   61.8156   51.2986 T4         2 LUT      0.093752
    210 H162       65.7337   62.3849   52.7615 T4         2 LUT      0.093752
    211 H161       64.5081   63.1913   51.8760 T4         2 LUT      0.093752
    212 HO3        65.0433   67.2571   52.9835 Q1         2 LUT      0.300121
    213 H8         68.1379   65.2127   48.0107 U7         2 LUT      0.080784
    214 H7         67.3663   62.4783   48.6319 U6         2 LUT      0.042190
    215 H42        63.7983   64.9985   50.6893 U5         2 LUT      0.145166
    216 H41        64.1451   66.6384   50.3313 U5         2 LUT      0.145166
    217 H35        76.0666   66.4527   43.5594 T3         2 LUT      0.077919
    218 H34        76.6859   65.1619   40.9123 T2         2 LUT      0.073626
    219 H32        78.5327   65.6407   39.7783 T1         2 LUT      0.092510
    220 H31        80.5429   67.7619   40.9019 U9         2 LUT      0.070048
    221 H30        80.3913   66.0954   38.2533 U8         2 LUT      0.085442
    222 H3         64.6623   65.1385   52.7362 U3         2 LUT     -0.031596
    223 H28        82.1922   66.1273   36.8278 U7         2 LUT      0.084728
    224 H27        84.4810   67.9405   37.4639 U6         2 LUT      0.087291
    225 H26        84.3731   65.6442   35.7389 Q6         2 LUT      0.075325
    226 H24        85.8801   67.5610   32.6170 Q5         2 LUT      0.094482
    227 H23        87.9233   67.0481   34.3848 U3         2 LUT     -0.024869
    228 H22        66.8132   64.5161   52.9622 U2         2 LUT      0.127376
    229 H21        67.3049   65.6721   51.6169 U2         2 LUT      0.127376
    230 H15        74.4618   64.9429   41.3561 T3         2 LUT      0.093200
    231 H14        73.7938   66.1138   44.0555 T2         2 LUT      0.068865
    232 H12        71.9833   65.8024   45.1631 T1         2 LUT      0.095507
    233 H11        70.4317   63.3268   44.3811 U9         2 LUT      0.068930
    234 H10        70.0294   65.2701   46.6472 U8         2 LUT      0.083911
    235 H1         88.0352   65.8586   32.1190 Q1         2 LUT      0.297311
@<TRIPOS>BOND
    1     6     1 1
    2     7     2 1
    3     8     3 1
    4     9     4 1
    5    11     4 1
    6    12     6 1
    7    13     9 1
    8    16     9 1
    9    25     5 1
   10    25    16 1
   11    26    10 1
   12    26    17 1
   13    27    18 1
   14    28    14 1
   15    28    19 1
   16    29    12 1
   17    30    13 1
   18    31    24 1
   19    32     1 1
   20    32    25 1
   21    33    21 1
   22    33    26 1
   23    34    22 1
   24    34    27 1
   25    35    23 1
   26    35    28 1
   27    36    12 1
   28    36    24 1
   29    37    13 1
   30    37    15 1
   31    38    31 1
   32    39    20 1
   33    39    32 1
   34    40     2 1
   35    40    33 1
   36    41     3 1
   37    41    34 1
   38    42     4 1
   39    42    35 1
   40    43    38 1
   41    44     5 1
   42    44    17 1
   43    44    39 1
   44    45    10 1
   45    45    18 1
   46    45    40 1
   47    46    19 1
   48    46    41 1
   49    47    14 1
   50    47    16 1
   51    47    42 1
   52    48    38 1
   53    49    48 1
   54    50    49 1
   55    51    50 1
   56    52    51 1
   57    53    51 1
   58    54    53 1
   59    55    54 1
   60    56    55 1
   61    57    56 1
   62    58    56 1
   63    59    58 1
   64    60    59 1
   65    61    60 1
   66    62    61 1
   67    63    61 1
   68    64    27 1
   69    64    46 1
   70    65     5 1
   71    65    10 1
   72    65    64 1
   73    65    14 1
   74    66    23 1
   75    67    23 1
   76    68    23 1
   77    69    22 1
   78    70    22 1
   79    71    22 1
   80    72    21 1
   81    73    21 1
   82    74    21 1
   83    75    20 1
   84    76    20 1
   85    77    20 1
   86    78    15 1
   87    79    15 1
   88    80    15 1
   89    81     8 1
   90    82     8 1
   91    83     8 1
   92    84     7 1
   93    85     7 1
   94    86     6 1
   95    87     6 1
   96    88     3 1
   97    89     3 1
   98    90     1 1
   99    91     1 1
  100    92    63 1
  101    93    63 1
  102    94    63 1
  103    95    62 1
  104    96    62 1
  105    97    62 1
  106    98    60 1
  107    99    60 1
  108   100    59 1
  109   101    59 1
  110   102    58 1
  111   103    58 1
  112   104    57 1
  113   105    57 1
  114   106    57 1
  115   107    55 1
  116   108    55 1
  117   109    54 1
  118   110    54 1
  119   111    53 1
  120   112    53 1
  121   113    19 1
  122   114    18 1
  123   115    17 1
  124   116     9 1
  125   117     2 1
  126   118    52 1
  127   119    52 1
  128   120    52 1
  129   121    51 1
  130   122    50 1
  131   123    50 1
  132   124    49 1
  133   125    49 1
  134   126    48 1
  135   127    48 1
  136   128    43 1
  137   129    43 1
  138   130    43 1
  139   131    39 1
  140   132    32 1
  141   133    31 1
  142   134    61 1
  143   135    56 1
  144   136    24 1
  145   137    24 1
  146   139   138 1
  147   140   139 1
  148   141   140 1
  149   142   140 1
  150   143   142 1
  151   144   138 1
  152   144   143 1
  153   145   144 1
  154   146   145 1
  155   147   146 1
  156   148   147 1
  157   149   148 1
  158   150   149 1
  159   151   150 1
  160   152   151 1
  161   153   152 1
  162   154   138 1
  163   155   138 1
  164   156   143 1
  165   157   147 1
  166   158   151 1
  167   160   159 1
  168   161   160 1
  169   162   161 1
  170   163   161 1
  171   164   163 1
  172   165   159 1
  173   165   164 1
  174   166   165 1
  175   167   166 1
  176   168   167 1
  177   169   168 1
  178   170   169 1
  179   171   170 1
  180   172   171 1
  181   173   172 1
  182   174   153 1
  183   174   173 1
  184   175   159 1
  185   176   159 1
  186   177   164 1
  187   178   168 1
  188   179   172 1
  189   180   179 1
  190   181   179 1
  191   182   179 1
  192   183   178 1
  193   184   178 1
  194   185   178 1
  195   186   177 1
  196   187   177 1
  197   188   177 1
  198   189   176 1
  199   190   176 1
  200   191   176 1
  201   192   175 1
  202   193   175 1
  203   194   175 1
  204   195   160 1
  205   196   160 1
  206   197   158 1
  207   198   158 1
  208   199   158 1
  209   200   157 1
  210   201   157 1
  211   202   157 1
  212   203   156 1
  213   204   156 1
  214   205   156 1
  215   206   155 1
  216   207   155 1
  217   208   155 1
  218   209   154 1
  219   210   154 1
  220   211   154 1
  221   212   141 1
  222   213   146 1
  223   214   145 1
  224   215   142 1
  225   216   142 1
  226   217   174 1
  227   218   173 1
  228   219   171 1
  229   220   170 1
  230   221   169 1
  231   222   140 1
  232   223   167 1
  233   224   166 1
  234   225   165 1
  235   226   163 1
  236   227   161 1
  237   228   139 1
  238   229   139 1
  239   230   153 1
  240   231   152 1
  241   232   150 1
  242   233   149 1
  243   234   148 1
  244   235   162 1
  245   65    153 1
  246   65    174 1
@<TRIPOS>SUBSTRUCTURE
      1 CLA               1 ****               0 ****  **** 
      2 LUT             138 ****               0 ****  **** 
