@<TRIPOS>MOLECULE
Cpptraj generated mol2 file.
  235   246     2     0     0
SMALL
USER_CHARGES


@<TRIPOS>ATOM
      1 CAA        77.7479   57.5309   35.1460 a2         1 CLA     -0.055900
      2 CAB        76.9851   61.5094   43.9899 c8         1 CLA     -0.148500
      3 CAC        70.6128   56.6828   43.2885 a2         1 CLA     -0.012600
      4 CAD        73.8987   54.4171   36.2154 ck         1 CLA      0.398800
      5 NA         76.5157   58.0916   38.3177 ns         1 CLA     -0.225500
      6 CBA        79.0481   57.6291   34.3714 a2         1 CLA     -0.135000
      7 CBB        78.1681   61.7492   44.5469 c0         1 CLA     -0.395200
      8 CBC        70.9936   55.1703   43.4082 a3         1 CLA     -0.037700
      9 CBD        75.4250   54.9496   36.1449 a1         1 CLA     -0.053900
     10 NB         76.0838   59.6391   40.9146 nm         1 CLA     -0.295700
     11 OBD        73.3811   53.6079   35.4568 o2         1 CLA     -0.494600
     12 CGA        79.6422   56.3014   33.9680 c4         1 CLA      0.827000
     13 CGD        76.4119   53.8158   36.2837 c4         1 CLA      0.655300
     14 ND         73.8119   56.7710   38.8472 nm         1 CLA     -0.291600
     15 CED        76.7895   51.7075   37.3933 a3         1 CLA      0.005400
     16 CHA        75.4859   56.1817   37.0916 cs         1 CLA     -0.123800
     17 CHB        78.0061   59.7833   39.4244 aa         1 CLA     -0.291900
     18 CHC        74.6827   59.6452   42.8972 aa         1 CLA     -0.090400
     19 CHD        71.9566   56.5794   40.3807 aa         1 CLA     -0.052000
     20 CMA        79.6957   57.3457   38.4439 a3         1 CLA     -0.230700
     21 CMB        79.0915   61.7643   41.5491 a3         1 CLA     -0.180800
     22 CMC        72.5166   59.0112   44.8625 a3         1 CLA     -0.134000
     23 CMD        70.8893   54.4553   38.0568 a3         1 CLA     -0.141100
     24 C1         81.0934   54.5324   34.8196 a2         1 CLA      0.023000
     25 C1A        76.5829   57.0624   37.3586 ac         1 CLA     -0.015100
     26 C1B        77.3054   60.0834   40.5864 cr         1 CLA      0.054700
     27 C1C        73.6256   58.8857   42.5562 cn         1 CLA     -0.005600
     28 C1D        72.5991   56.2381   39.1531 ap         1 CLA     -0.047300
     29 O1A        79.1043   55.4490   33.2298 o2         1 CLA     -0.610800
     30 O1D        77.5846   53.7913   35.8599 o2         1 CLA     -0.558200
     31 C2         81.9402   54.4993   36.1065 c8         1 CLA     -0.325100
     32 C2A        77.9011   57.1294   36.6165 a1         1 CLA      0.098600
     33 C2B        77.8016   61.0023   41.6174 cb         1 CLA      0.088500
     34 C2C        72.5842   58.3782   43.4956 cb         1 CLA      0.053700
     35 C2D        72.2152   55.2868   38.1726 cb         1 CLA      0.058900
     36 O2A        80.8065   55.9861   34.6728 o1         1 CLA     -0.437200
     37 O2D        75.9077   52.8314   37.1198 o1         1 CLA     -0.357600
     38 C3         82.4563   53.3872   36.6047 c5         1 CLA      0.031200
     39 C3A        78.6732   58.1780   37.5152 a1         1 CLA      0.166800
     40 C3B        76.9557   60.8458   42.6714 cb         1 CLA      0.035000
     41 C3C        71.8436   57.4546   42.8384 cb         1 CLA     -0.089900
     42 C3D        73.3241   55.1839   37.3420 cb         1 CLA     -0.035900
     43 C4         81.7583   52.6209   37.7205 a3         1 CLA     -0.053300
     44 C4A        77.6864   58.8192   38.4635 ac         1 CLA      0.001800
     45 C4B        75.8268   60.0440   42.1797 cn         1 CLA     -0.020900
     46 C4C        72.4368   57.3421   41.4624 cr         1 CLA     -0.044400
     47 C4D        74.2724   56.1507   37.8246 c6         1 CLA     -0.046000
     48 C5         83.7772   52.8351   36.1154 a2         1 CLA     -0.070400
     49 C6         84.9202   53.9286   36.2408 a2         1 CLA      0.043900
     50 C7         85.1254   54.2859   37.7296 a2         1 CLA     -0.150000
     51 C8         86.0814   55.5768   37.9897 a1         1 CLA      0.064200
     52 C9         87.6007   55.3093   37.6298 a3         1 CLA     -0.259300
     53 C10        85.9293   56.1867   39.4240 a2         1 CLA     -0.071900
     54 C11        84.5436   56.7488   39.7988 a2         1 CLA      0.014500
     55 C12        84.3599   57.6134   41.0737 a2         1 CLA     -0.112100
     56 C13        84.8414   57.1027   42.4706 a1         1 CLA      0.089200
     57 C14        84.1706   55.7810   42.9708 a3         1 CLA     -0.239100
     58 C15        84.7528   58.1961   43.6189 a2         1 CLA     -0.102200
     59 C16        83.3108   58.7493   43.9345 a2         1 CLA      0.023900
     60 C17        83.3838   59.9035   44.8533 a2         1 CLA     -0.105700
     61 C18        82.0115   60.5485   45.0747 a1         1 CLA      0.206800
     62 C19        81.0572   59.7637   45.9373 a3         1 CLA     -0.280100
     63 C20        82.2330   61.9650   45.7030 a3         1 CLA     -0.280100
     64 NC         73.4609   58.1924   41.3982 nx         1 CLA     -0.309200
     65 MG         74.8672   58.3823   39.7426 mg         1 CLA      0.895000
     66 HMD3       70.4959   54.3242   39.1101 dc         1 CLA      0.064300
     67 HMD2       70.1814   54.9754   37.4197 dc         1 CLA      0.064300
     68 HMD1       71.1138   53.5113   37.5791 dc         1 CLA      0.064300
     69 HMC3       71.5632   58.7998   45.3639 dc         1 CLA      0.052100
     70 HMC2       73.3018   58.5587   45.4935 dc         1 CLA      0.052100
     71 HMC1       72.7034   60.0742   44.7491 dc         1 CLA      0.052100
     72 HMB3       79.4684   61.9067   40.5159 dc         1 CLA      0.063600
     73 HMB2       78.9755   62.7767   41.9058 dc         1 CLA      0.063600
     74 HMB1       79.9433   61.3014   41.9796 dc         1 CLA      0.063600
     75 HMA3       79.1836   56.4495   38.9009 dc         1 CLA      0.058300
     76 HMA2       80.4775   57.1283   37.7647 dc         1 CLA      0.058300
     77 HMA1       80.0058   58.0357   39.2011 dc         1 CLA      0.058300
     78 HED3       76.5494   50.9279   36.6479 dc         1 CLA      0.079300
     79 HED2       77.8374   51.9564   37.3864 dc         1 CLA      0.079300
     80 HED1       76.5268   51.3435   38.3859 dc         1 CLA      0.079300
     81 HBC3       71.3804   54.8277   42.5016 dc         1 CLA      0.016300
     82 HBC2       71.8197   55.1588   44.1773 dc         1 CLA      0.016300
     83 HBC1       70.0917   54.6159   43.7359 dc         1 CLA      0.016300
     84 HBB2       78.4485   62.1292   45.5395 da         1 CLA      0.183000
     85 HBB1       79.0815   61.4043   44.0427 da         1 CLA      0.183000
     86 HBA2       78.9078   58.1944   33.4512 dc         1 CLA      0.029400
     87 HBA1       79.7939   58.1589   34.9367 dc         1 CLA      0.029400
     88 HAC2       70.3432   56.9852   44.3330 dc         1 CLA      0.029300
     89 HAC1       69.7759   56.8114   42.6521 dc         1 CLA      0.029300
     90 HAA2       76.9567   56.9549   34.5845 dc         1 CLA      0.028700
     91 HAA1       77.4347   58.6084   35.2105 dc         1 CLA      0.028700
     92 H203       81.2205   62.3610   45.9503 dc         1 CLA      0.065600
     93 H202       82.7909   61.8864   46.6670 dc         1 CLA      0.065600
     94 H201       82.6442   62.7164   45.0070 dc         1 CLA      0.065600
     95 H193       81.5054   59.4933   46.8946 dc         1 CLA      0.065600
     96 H192       80.1584   60.2740   45.9505 dc         1 CLA      0.065600
     97 H191       80.8167   58.9118   45.3180 dc         1 CLA      0.065600
     98 H172       83.8668   59.6002   45.8115 dc         1 CLA      0.027600
     99 H171       84.0041   60.6476   44.3418 dc         1 CLA      0.027600
    100 H162       82.9930   59.2011   43.0383 dc         1 CLA      0.002900
    101 H161       82.5623   58.0431   44.2910 dc         1 CLA      0.002900
    102 H152       85.2769   57.9064   44.5447 dc         1 CLA      0.029100
    103 H151       85.4907   59.0292   43.2441 dc         1 CLA      0.029100
    104 H143       84.7343   55.4721   43.8802 dc         1 CLA      0.063600
    105 H142       83.1684   55.9697   43.3388 dc         1 CLA      0.063600
    106 H141       84.1622   54.9717   42.2826 dc         1 CLA      0.063600
    107 H122       84.8034   58.5430   40.8053 dc         1 CLA      0.032500
    108 H121       83.3269   57.8242   41.2071 dc         1 CLA      0.032500
    109 H112       84.2487   57.3934   38.9558 dc         1 CLA      0.006600
    110 H111       83.8837   55.9178   39.9501 dc         1 CLA      0.006600
    111 H102       86.1403   55.4647   40.1887 dc         1 CLA      0.024100
    112 H101       86.5121   57.0784   39.5517 dc         1 CLA      0.024100
    113 HHD        71.0075   56.1453   40.5013 da         1 CLA      0.174300
    114 HHC        74.7507   60.1264   43.8636 da         1 CLA      0.136800
    115 HHB        79.0038   60.2255   39.3515 da         1 CLA      0.138300
    116 HBD        75.6482   55.2305   35.1574 dc         1 CLA      0.107700
    117 HAB        76.0282   61.7372   44.4436 da         1 CLA      0.155200
    118 H93        87.7454   54.2912   38.0688 dc         1 CLA      0.069500
    119 H92        87.6458   55.2012   36.5584 dc         1 CLA      0.069500
    120 H91        88.3335   56.0889   38.0375 dc         1 CLA      0.069500
    121 H8         85.7667   56.2620   37.2858 dc         1 CLA      0.029300
    122 H72        84.1581   54.5786   38.1570 dc         1 CLA      0.044400
    123 H71        85.3900   53.4095   38.2167 dc         1 CLA      0.044400
    124 H62        85.9511   53.6381   35.8738 dc         1 CLA      0.015600
    125 H61        84.7330   54.8372   35.7375 dc         1 CLA      0.015600
    126 H52        84.0782   51.9998   36.8262 dc         1 CLA      0.033200
    127 H51        83.4983   52.4324   35.0965 dc         1 CLA      0.033200
    128 H43        82.3522   52.6939   38.6779 dc         1 CLA      0.037000
    129 H42        80.7324   52.9475   37.7872 dc         1 CLA      0.037000
    130 H41        81.8400   51.5503   37.4975 dc         1 CLA      0.037000
    131 H3A        79.2281   58.9586   36.9931 dc         1 CLA      0.041100
    132 H2A        78.3179   56.1671   36.7566 dc         1 CLA      0.083100
    133 H2         82.2520   55.4583   36.4930 da         1 CLA      0.180900
    134 H18        81.4576   60.6268   44.1264 dc         1 CLA     -0.003900
    135 H13        85.8603   56.8870   42.2584 dc         1 CLA      0.019700
    136 H12        80.1671   53.9075   34.9221 dc         1 CLA      0.120400
    137 H11        81.6768   54.1585   34.0028 dc         1 CLA      0.120400
    138 C1         68.3289   60.7245   50.1645 Z1         2 LUT      0.509236
    139 C2         68.0543   61.7682   51.3218 Z2         2 LUT     -0.434695
    140 C3         66.6360   61.9419   51.5655 Z3         2 LUT      0.437453
    141 O3         66.3873   62.7515   52.6624 S1         2 LUT     -0.547129
    142 C4         66.0764   62.6053   50.2886 Z4         2 LUT     -0.468603
    143 C5         66.5251   62.0169   48.9897 Z5         2 LUT      0.279246
    144 C6         67.4503   61.0301   48.8836 Z6         2 LUT     -0.305473
    145 C7         68.0411   60.6384   47.5905 Z7         2 LUT      0.069402
    146 C8         68.8969   61.3817   46.7966 Z8         2 LUT     -0.191631
    147 C9         69.4976   61.0477   45.5350 Z9         2 LUT      0.196698
    148 C10        70.3880   62.0031   45.0010 Y1         2 LUT     -0.208611
    149 C11        71.0411   61.9532   43.7534 Y2         2 LUT      0.030784
    150 C12        72.1760   62.6071   43.4162 Y3         2 LUT     -0.220316
    151 C13        72.9636   62.5309   42.2150 Y4         2 LUT      0.215937
    152 C14        74.1376   63.1671   42.1385 Y5         2 LUT     -0.185793
    153 C15        75.1057   63.1275   41.0704 Y6         2 LUT     -0.057835
    154 C16        67.9197   59.2551   50.4846 Y7         2 LUT     -0.405615
    155 C17        69.9059   60.4396   50.1134 Y7         2 LUT     -0.405615
    156 C18        65.9618   62.8801   47.8097 Y9         2 LUT     -0.369639
    157 C19        68.9799   59.7886   44.9076 W1         2 LUT     -0.333362
    158 C20        72.3898   61.8511   40.9972 W2         2 LUT     -0.323439
    159 C21        86.5522   64.5449   35.3201 Z1         2 LUT      0.406104
    160 C22        87.5367   64.0326   34.3033 Z2         2 LUT     -0.404965
    161 C23        87.9425   64.9592   33.2274 Z3         2 LUT      0.391255
    162 O23        88.8513   64.2865   32.3104 S1         2 LUT     -0.528210
    163 C24        86.7755   65.6965   32.6220 W6         2 LUT     -0.258361
    164 C25        85.6130   65.7886   33.2445 Z5         2 LUT      0.133546
    165 C26        85.2250   64.9203   34.5163 W8         2 LUT     -0.147008
    166 C27        84.2016   65.6682   35.3318 Z7         2 LUT      0.023843
    167 C28        83.1966   65.0424   35.9695 Z8         2 LUT     -0.216987
    168 C29        82.5608   65.5438   37.2085 Z9         2 LUT      0.206524
    169 C30        81.5142   64.8650   37.6320 Y1         2 LUT     -0.215556
    170 C31        80.6459   65.0829   38.7649 Y2         2 LUT      0.025142
    171 C32        79.4728   64.4111   39.0130 Y3         2 LUT     -0.212209
    172 C33        78.4930   64.5511   40.1193 Y4         2 LUT      0.240937
    173 C34        77.3000   63.8778   40.0906 Y5         2 LUT     -0.218862
    174 C35        76.2547   63.9565   41.0760 Y6         2 LUT     -0.023547
    175 C36        87.2257   65.7107   36.0424 Y7         2 LUT     -0.393485
    176 C37        86.2002   63.4697   36.3766 Y7         2 LUT     -0.393485
    177 C38        84.5475   66.7285   32.7320 Y9         2 LUT     -0.387526
    178 C39        83.0668   66.8258   37.9028 W1         2 LUT     -0.322618
    179 C40        78.7368   65.5207   41.2319 W2         2 LUT     -0.358472
    180 H403       79.4048   66.2967   40.9624 R7         2 LUT      0.097720
    181 H402       77.8225   66.0056   41.4862 R7         2 LUT      0.097720
    182 H401       79.1492   65.1980   42.1585 R7         2 LUT      0.097720
    183 H393       82.9846   66.6979   38.9208 R4         2 LUT      0.082505
    184 H392       84.1295   67.1330   37.8345 R4         2 LUT      0.082505
    185 H391       82.3685   67.5778   37.7378 R4         2 LUT      0.082505
    186 H383       83.5094   66.3027   32.9095 R1         2 LUT      0.104030
    187 H382       84.6333   67.7389   33.1271 R1         2 LUT      0.104030
    188 H381       84.7286   66.7397   31.6325 R1         2 LUT      0.104030
    189 H373       85.3206   63.7373   36.8873 T4         2 LUT      0.089537
    190 H372       86.1317   62.5259   35.8469 T4         2 LUT      0.089537
    191 H371       86.9236   63.3720   37.1950 T4         2 LUT      0.089537
    192 H363       88.1324   65.3044   36.5670 T4         2 LUT      0.089537
    193 H362       87.5187   66.6004   35.5093 T4         2 LUT      0.089537
    194 H361       86.4760   66.1687   36.8122 T4         2 LUT      0.089537
    195 H222       88.4321   63.5870   34.8149 U2         2 LUT      0.127376
    196 H221       87.1352   63.2030   33.7214 U2         2 LUT      0.127376
    197 H203       71.9961   60.8815   41.1035 R7         2 LUT      0.087068
    198 H202       71.4853   62.4267   40.8417 R7         2 LUT      0.087068
    199 H201       72.9256   61.7323   40.0792 R7         2 LUT      0.087068
    200 H193       69.0221   58.8976   45.5393 R4         2 LUT      0.089716
    201 H192       67.9124   59.9293   44.6564 R4         2 LUT      0.089716
    202 H191       69.5115   59.6056   44.0309 R4         2 LUT      0.089716
    203 H183       64.9747   63.3808   48.0097 R1         2 LUT      0.094572
    204 H182       66.6393   63.7938   47.6173 R1         2 LUT      0.094572
    205 H181       65.8051   62.2831   46.9179 R1         2 LUT      0.094572
    206 H173       70.2332   59.7007   49.3946 T4         2 LUT      0.093752
    207 H172       70.4473   61.4057   50.0602 T4         2 LUT      0.093752
    208 H171       70.2461   59.9852   51.0336 T4         2 LUT      0.093752
    209 H163       68.2888   58.9793   51.4878 T4         2 LUT      0.093752
    210 H162       66.9077   59.1063   50.4118 T4         2 LUT      0.093752
    211 H161       68.2638   58.5414   49.7053 T4         2 LUT      0.093752
    212 HO3        65.9971   62.2089   53.3556 Q1         2 LUT      0.300121
    213 H8         69.2550   62.2865   47.2807 U7         2 LUT      0.080784
    214 H7         67.6935   59.7627   47.2090 U6         2 LUT      0.042190
    215 H42        64.9312   62.3907   50.3952 U5         2 LUT      0.145166
    216 H41        66.3366   63.6963   50.2481 U5         2 LUT      0.145166
    217 H35        76.2689   64.6958   41.8825 T3         2 LUT      0.077919
    218 H34        77.0425   63.1677   39.3157 T2         2 LUT      0.073626
    219 H32        79.2007   63.6479   38.2575 T1         2 LUT      0.092510
    220 H31        80.9711   65.8101   39.4284 U9         2 LUT      0.070048
    221 H30        81.2580   63.9917   37.0662 U8         2 LUT      0.085442
    222 H3         66.3908   60.9159   51.6761 U3         2 LUT     -0.031596
    223 H28        82.8230   64.0969   35.5778 U7         2 LUT      0.084728
    224 H27        84.6256   66.6151   35.5887 U6         2 LUT      0.087291
    225 H26        84.8281   63.9737   34.1531 Q6         2 LUT      0.075325
    226 H24        86.9966   66.2630   31.7499 Q5         2 LUT      0.094482
    227 H23        88.6381   65.6179   33.7657 U3         2 LUT     -0.024869
    228 H22        68.5382   61.2780   52.1755 U2         2 LUT      0.127376
    229 H21        68.5690   62.7961   51.1491 U2         2 LUT      0.127376
    230 H15        75.0634   62.3470   40.3070 T3         2 LUT      0.093200
    231 H14        74.3864   63.8757   42.9653 T2         2 LUT      0.068865
    232 H12        72.5492   63.2193   44.2490 T1         2 LUT      0.095507
    233 H11        70.5939   61.3843   42.9428 U9         2 LUT      0.068930
    234 H10        70.6265   62.8146   45.7440 U8         2 LUT      0.083911
    235 H1         88.5104   64.1242   31.4394 Q1         2 LUT      0.297311
@<TRIPOS>BOND
    1     6     1 1
    2     7     2 1
    3     8     3 1
    4     9     4 1
    5    11     4 1
    6    12     6 1
    7    13     9 1
    8    16     9 1
    9    25     5 1
   10    25    16 1
   11    26    10 1
   12    26    17 1
   13    27    18 1
   14    28    14 1
   15    28    19 1
   16    29    12 1
   17    30    13 1
   18    31    24 1
   19    32     1 1
   20    32    25 1
   21    33    21 1
   22    33    26 1
   23    34    22 1
   24    34    27 1
   25    35    23 1
   26    35    28 1
   27    36    12 1
   28    36    24 1
   29    37    13 1
   30    37    15 1
   31    38    31 1
   32    39    20 1
   33    39    32 1
   34    40     2 1
   35    40    33 1
   36    41     3 1
   37    41    34 1
   38    42     4 1
   39    42    35 1
   40    43    38 1
   41    44     5 1
   42    44    17 1
   43    44    39 1
   44    45    10 1
   45    45    18 1
   46    45    40 1
   47    46    19 1
   48    46    41 1
   49    47    14 1
   50    47    16 1
   51    47    42 1
   52    48    38 1
   53    49    48 1
   54    50    49 1
   55    51    50 1
   56    52    51 1
   57    53    51 1
   58    54    53 1
   59    55    54 1
   60    56    55 1
   61    57    56 1
   62    58    56 1
   63    59    58 1
   64    60    59 1
   65    61    60 1
   66    62    61 1
   67    63    61 1
   68    64    27 1
   69    64    46 1
   70    65     5 1
   71    65    10 1
   72    65    64 1
   73    65    14 1
   74    66    23 1
   75    67    23 1
   76    68    23 1
   77    69    22 1
   78    70    22 1
   79    71    22 1
   80    72    21 1
   81    73    21 1
   82    74    21 1
   83    75    20 1
   84    76    20 1
   85    77    20 1
   86    78    15 1
   87    79    15 1
   88    80    15 1
   89    81     8 1
   90    82     8 1
   91    83     8 1
   92    84     7 1
   93    85     7 1
   94    86     6 1
   95    87     6 1
   96    88     3 1
   97    89     3 1
   98    90     1 1
   99    91     1 1
  100    92    63 1
  101    93    63 1
  102    94    63 1
  103    95    62 1
  104    96    62 1
  105    97    62 1
  106    98    60 1
  107    99    60 1
  108   100    59 1
  109   101    59 1
  110   102    58 1
  111   103    58 1
  112   104    57 1
  113   105    57 1
  114   106    57 1
  115   107    55 1
  116   108    55 1
  117   109    54 1
  118   110    54 1
  119   111    53 1
  120   112    53 1
  121   113    19 1
  122   114    18 1
  123   115    17 1
  124   116     9 1
  125   117     2 1
  126   118    52 1
  127   119    52 1
  128   120    52 1
  129   121    51 1
  130   122    50 1
  131   123    50 1
  132   124    49 1
  133   125    49 1
  134   126    48 1
  135   127    48 1
  136   128    43 1
  137   129    43 1
  138   130    43 1
  139   131    39 1
  140   132    32 1
  141   133    31 1
  142   134    61 1
  143   135    56 1
  144   136    24 1
  145   137    24 1
  146   139   138 1
  147   140   139 1
  148   141   140 1
  149   142   140 1
  150   143   142 1
  151   144   138 1
  152   144   143 1
  153   145   144 1
  154   146   145 1
  155   147   146 1
  156   148   147 1
  157   149   148 1
  158   150   149 1
  159   151   150 1
  160   152   151 1
  161   153   152 1
  162   154   138 1
  163   155   138 1
  164   156   143 1
  165   157   147 1
  166   158   151 1
  167   160   159 1
  168   161   160 1
  169   162   161 1
  170   163   161 1
  171   164   163 1
  172   165   159 1
  173   165   164 1
  174   166   165 1
  175   167   166 1
  176   168   167 1
  177   169   168 1
  178   170   169 1
  179   171   170 1
  180   172   171 1
  181   173   172 1
  182   174   153 1
  183   174   173 1
  184   175   159 1
  185   176   159 1
  186   177   164 1
  187   178   168 1
  188   179   172 1
  189   180   179 1
  190   181   179 1
  191   182   179 1
  192   183   178 1
  193   184   178 1
  194   185   178 1
  195   186   177 1
  196   187   177 1
  197   188   177 1
  198   189   176 1
  199   190   176 1
  200   191   176 1
  201   192   175 1
  202   193   175 1
  203   194   175 1
  204   195   160 1
  205   196   160 1
  206   197   158 1
  207   198   158 1
  208   199   158 1
  209   200   157 1
  210   201   157 1
  211   202   157 1
  212   203   156 1
  213   204   156 1
  214   205   156 1
  215   206   155 1
  216   207   155 1
  217   208   155 1
  218   209   154 1
  219   210   154 1
  220   211   154 1
  221   212   141 1
  222   213   146 1
  223   214   145 1
  224   215   142 1
  225   216   142 1
  226   217   174 1
  227   218   173 1
  228   219   171 1
  229   220   170 1
  230   221   169 1
  231   222   140 1
  232   223   167 1
  233   224   166 1
  234   225   165 1
  235   226   163 1
  236   227   161 1
  237   228   139 1
  238   229   139 1
  239   230   153 1
  240   231   152 1
  241   232   150 1
  242   233   149 1
  243   234   148 1
  244   235   162 1
  245   65    153 1
  246   65    174 1
@<TRIPOS>SUBSTRUCTURE
      1 CLA               1 ****               0 ****  **** 
      2 LUT             138 ****               0 ****  **** 
