@<TRIPOS>MOLECULE
Cpptraj generated mol2 file.
  235   246     2     0     0
SMALL
USER_CHARGES


@<TRIPOS>ATOM
      1 CAA        77.2859   57.7689   33.4132 a2         1 CLA     -0.055900
      2 CAB        77.0834   61.5101   42.4315 c8         1 CLA     -0.148500
      3 CAC        70.0112   57.5826   41.6347 a2         1 CLA     -0.012600
      4 CAD        73.0602   54.9834   34.5988 ck         1 CLA      0.398800
      5 NA         76.0627   58.0700   36.7456 ns         1 CLA     -0.225500
      6 CBA        78.6449   57.7384   32.7315 a2         1 CLA     -0.135000
      7 CBB        78.2096   61.3815   43.1280 c0         1 CLA     -0.395200
      8 CBC        70.0396   56.1749   42.2339 a3         1 CLA     -0.037700
      9 CBD        74.5409   55.5571   34.2454 a1         1 CLA     -0.053900
     10 NB         75.9229   59.5805   39.3876 nm         1 CLA     -0.295700
     11 OBD        72.3940   54.1785   33.8917 o2         1 CLA     -0.494600
     12 CGA        79.0201   56.3153   32.3230 c4         1 CLA      0.827000
     13 CGD        75.5072   54.4111   34.1466 c4         1 CLA      0.655300
     14 ND         73.4446   57.1177   37.3861 nm         1 CLA     -0.291600
     15 CED        76.0910   52.2098   34.8854 a3         1 CLA      0.005400
     16 CHA        74.8501   56.4564   35.4089 cs         1 CLA     -0.123800
     17 CHB        77.8744   59.3187   37.8834 aa         1 CLA     -0.291900
     18 CHC        74.5389   59.8467   41.4422 aa         1 CLA     -0.090400
     19 CHD        71.5590   57.0594   38.9797 aa         1 CLA     -0.052000
     20 CMA        79.6062   57.1631   36.3009 a3         1 CLA     -0.230700
     21 CMB        79.1465   61.1446   40.0050 a3         1 CLA     -0.180800
     22 CMC        72.2376   59.3559   43.3730 a3         1 CLA     -0.134000
     23 CMD        70.2928   55.1359   36.8467 a3         1 CLA     -0.141100
     24 C1         79.8210   54.1382   32.9960 a2         1 CLA      0.023000
     25 C1A        76.0101   57.2357   35.6785 ac         1 CLA     -0.015100
     26 C1B        77.2046   59.8078   39.0357 cr         1 CLA      0.054700
     27 C1C        73.3869   59.1423   41.1500 cn         1 CLA     -0.005600
     28 C1D        72.1428   56.6918   37.7786 ap         1 CLA     -0.047300
     29 O1A        78.7793   55.8511   31.2236 o2         1 CLA     -0.610800
     30 O1D        76.6011   54.4613   33.4958 o2         1 CLA     -0.558200
     31 C2         80.2998   53.4096   34.1989 c8         1 CLA     -0.325100
     32 C2A        77.3147   57.1883   34.9113 a1         1 CLA      0.098600
     33 C2B        77.7713   60.7083   40.0470 cb         1 CLA      0.088500
     34 C2C        72.2675   58.9044   42.0458 cb         1 CLA      0.053700
     35 C2D        71.6141   55.7832   36.7804 cb         1 CLA      0.058900
     36 O2A        79.6475   55.5668   33.3221 o1         1 CLA     -0.437200
     37 O2D        75.1004   53.2979   34.8401 o1         1 CLA     -0.357600
     38 C3         81.2512   52.4240   34.1642 c5         1 CLA      0.031200
     39 C3A        78.3169   57.9537   35.8012 a1         1 CLA      0.166800
     40 C3B        76.9004   60.7502   41.1535 cb         1 CLA      0.035000
     41 C3C        71.3379   58.1406   41.2705 cb         1 CLA     -0.089900
     42 C3D        72.6455   55.6232   35.8512 cb         1 CLA     -0.035900
     43 C4         80.6594   51.0081   33.9886 a3         1 CLA     -0.053300
     44 C4A        77.4010   58.4623   36.8967 ac         1 CLA      0.001800
     45 C4B        75.7164   60.0657   40.7140 cn         1 CLA     -0.020900
     46 C4C        71.9957   57.9101   39.9752 cr         1 CLA     -0.044400
     47 C4D        73.7175   56.4065   36.2454 c6         1 CLA     -0.046000
     48 C5         82.7539   52.6320   34.3073 a2         1 CLA     -0.070400
     49 C6         83.1528   54.1181   34.7095 a2         1 CLA      0.043900
     50 C7         83.1227   54.2422   36.2513 a2         1 CLA     -0.150000
     51 C8         83.6001   55.6368   36.7551 a1         1 CLA      0.064200
     52 C9         85.2023   55.8673   36.5086 a3         1 CLA     -0.259300
     53 C10        83.4321   55.7488   38.3049 a2         1 CLA     -0.071900
     54 C11        82.0090   55.5544   38.8290 a2         1 CLA      0.014500
     55 C12        82.0858   55.9160   40.3869 a2         1 CLA     -0.112100
     56 C13        80.7182   56.0013   41.1013 a1         1 CLA      0.089200
     57 C14        79.7182   57.0792   40.5669 a3         1 CLA     -0.239100
     58 C15        80.8004   55.9914   42.6961 a2         1 CLA     -0.102200
     59 C16        81.1069   57.3463   43.4004 a2         1 CLA      0.023900
     60 C17        82.5491   57.8934   43.1693 a2         1 CLA     -0.105700
     61 C18        82.9318   59.0808   44.1358 a1         1 CLA      0.206800
     62 C19        82.0138   60.3500   44.0549 a3         1 CLA     -0.280100
     63 C20        83.0950   58.5415   45.6814 a3         1 CLA     -0.280100
     64 NC         73.1731   58.5764   39.9158 nx         1 CLA     -0.309200
     65 MG         74.5836   58.4959   38.3124 mg         1 CLA      0.895000
     66 HMD3       70.2642   54.1662   36.3848 dc         1 CLA      0.064300
     67 HMD2       70.0641   54.9950   37.8812 dc         1 CLA      0.064300
     68 HMD1       69.5135   55.8307   36.4569 dc         1 CLA      0.064300
     69 HMC3       71.2449   59.4346   43.7329 dc         1 CLA      0.052100
     70 HMC2       72.6720   58.5513   44.0154 dc         1 CLA      0.052100
     71 HMC1       72.8142   60.3089   43.5177 dc         1 CLA      0.052100
     72 HMB3       79.2513   61.6823   39.0910 dc         1 CLA      0.063600
     73 HMB2       79.3038   61.9221   40.7519 dc         1 CLA      0.063600
     74 HMB1       79.7299   60.2307   39.9482 dc         1 CLA      0.063600
     75 HMA3       79.1533   56.3237   36.9101 dc         1 CLA      0.058300
     76 HMA2       80.1790   56.7693   35.5015 dc         1 CLA      0.058300
     77 HMA1       80.1193   57.9054   36.8318 dc         1 CLA      0.058300
     78 HED3       77.1054   52.5221   35.2007 dc         1 CLA      0.079300
     79 HED2       75.8396   51.5403   35.6478 dc         1 CLA      0.079300
     80 HED1       75.9790   51.6912   33.8655 dc         1 CLA      0.079300
     81 HBC3       69.9534   55.4430   41.4303 dc         1 CLA      0.016300
     82 HBC2       70.9105   56.0280   42.8410 dc         1 CLA      0.016300
     83 HBC1       69.2354   55.8530   42.8841 dc         1 CLA      0.016300
     84 HBB2       78.3869   61.7345   44.1515 da         1 CLA      0.183000
     85 HBB1       79.0287   60.7310   42.7250 da         1 CLA      0.183000
     86 HBA2       78.5244   58.3201   31.8395 dc         1 CLA      0.029400
     87 HBA1       79.4635   58.1625   33.3108 dc         1 CLA      0.029400
     88 HAC2       69.5499   58.2437   42.3410 dc         1 CLA      0.029300
     89 HAC1       69.2875   57.5641   40.8118 dc         1 CLA      0.029300
     90 HAA2       76.5947   57.1328   32.8812 dc         1 CLA      0.028700
     91 HAA1       76.8748   58.8063   33.3900 dc         1 CLA      0.028700
     92 H203       83.4414   59.4194   46.2766 dc         1 CLA      0.065600
     93 H202       82.1963   58.0877   46.1819 dc         1 CLA      0.065600
     94 H201       83.8756   57.8390   45.7651 dc         1 CLA      0.065600
     95 H193       81.0108   59.9814   44.3984 dc         1 CLA      0.065600
     96 H192       82.3801   61.2249   44.6254 dc         1 CLA      0.065600
     97 H191       81.9561   60.6228   42.9823 dc         1 CLA      0.065600
     98 H172       83.2257   57.0325   43.2509 dc         1 CLA      0.027600
     99 H171       82.6099   58.2840   42.1459 dc         1 CLA      0.027600
    100 H162       80.4098   58.1205   43.0231 dc         1 CLA      0.002900
    101 H161       80.9597   57.2133   44.4079 dc         1 CLA      0.002900
    102 H152       79.8653   55.6014   43.1223 dc         1 CLA      0.029100
    103 H151       81.6036   55.2361   42.8687 dc         1 CLA      0.029100
    104 H143       80.1728   58.0310   40.8239 dc         1 CLA      0.063600
    105 H142       79.6732   56.9551   39.4598 dc         1 CLA      0.063600
    106 H141       78.7818   57.0104   41.0776 dc         1 CLA      0.063600
    107 H122       82.5676   55.0505   40.9297 dc         1 CLA      0.032500
    108 H121       82.6813   56.7291   40.5626 dc         1 CLA      0.032500
    109 H112       81.2576   56.0726   38.2219 dc         1 CLA      0.006600
    110 H111       81.7790   54.5435   38.6846 dc         1 CLA      0.006600
    111 H102       84.1965   55.1281   38.7295 dc         1 CLA      0.024100
    112 H101       83.6190   56.7671   38.5902 dc         1 CLA      0.024100
    113 HHD        70.7164   56.4865   39.3781 da         1 CLA      0.174300
    114 HHC        74.6132   60.4561   42.3320 da         1 CLA      0.136800
    115 HHB        78.8637   59.6123   37.8181 da         1 CLA      0.138300
    116 HBD        74.5978   56.2203   33.3450 dc         1 CLA      0.107700
    117 HAB        76.1815   61.9511   42.8596 da         1 CLA      0.155200
    118 H93        85.7822   55.0849   36.9971 dc         1 CLA      0.069500
    119 H92        85.3492   55.9494   35.4182 dc         1 CLA      0.069500
    120 H91        85.3779   56.8395   36.9334 dc         1 CLA      0.069500
    121 H8         82.9421   56.3745   36.3496 dc         1 CLA      0.029300
    122 H72        82.0882   54.0012   36.5599 dc         1 CLA      0.044400
    123 H71        83.7143   53.4208   36.7533 dc         1 CLA      0.044400
    124 H62        84.1963   54.2426   34.4822 dc         1 CLA      0.015600
    125 H61        82.4488   54.8680   34.2280 dc         1 CLA      0.015600
    126 H52        83.1951   51.9968   35.0626 dc         1 CLA      0.033200
    127 H51        83.1860   52.5114   33.3458 dc         1 CLA      0.033200
    128 H43        80.6478   50.5221   34.9525 dc         1 CLA      0.037000
    129 H42        79.5968   51.0488   33.6416 dc         1 CLA      0.037000
    130 H41        81.3043   50.3985   33.2962 dc         1 CLA      0.037000
    131 H3A        78.6578   58.8835   35.3108 dc         1 CLA      0.041100
    132 H2A        77.6383   56.1932   34.8077 dc         1 CLA      0.083100
    133 H2         79.7921   53.7550   35.1626 da         1 CLA      0.180900
    134 H18        83.8888   59.5175   43.8226 dc         1 CLA     -0.003900
    135 H13        80.1634   55.0638   40.9079 dc         1 CLA      0.019700
    136 H12        78.9262   53.6663   32.4625 dc         1 CLA      0.120400
    137 H11        80.6741   53.9432   32.2788 dc         1 CLA      0.120400
    138 C1         67.0226   61.4702   49.5314 Z1         2 LUT      0.509236
    139 C2         67.2540   62.7361   50.2307 Z2         2 LUT     -0.434695
    140 C3         66.1276   63.7405   50.4235 Z3         2 LUT      0.437453
    141 O3         66.7331   65.0299   50.5655 S1         2 LUT     -0.547129
    142 C4         65.2400   63.7112   49.2261 Z4         2 LUT     -0.468603
    143 C5         65.6239   62.9191   48.0342 Z5         2 LUT      0.279246
    144 C6         66.3591   61.7752   48.1238 Z6         2 LUT     -0.305473
    145 C7         67.0706   61.3099   46.9400 Z7         2 LUT      0.069402
    146 C8         68.1770   61.8591   46.3088 Z8         2 LUT     -0.191631
    147 C9         68.7344   61.3666   45.0187 Z9         2 LUT      0.196698
    148 C10        69.6731   62.1672   44.4060 Y1         2 LUT     -0.208611
    149 C11        70.2314   62.0803   43.0148 Y2         2 LUT      0.030784
    150 C12        71.3699   62.7484   42.6864 Y3         2 LUT     -0.220316
    151 C13        72.1117   62.5720   41.4474 Y4         2 LUT      0.215937
    152 C14        73.3063   63.2656   41.5027 Y5         2 LUT     -0.185793
    153 C15        74.3317   63.2954   40.5061 Y6         2 LUT     -0.057835
    154 C16        65.9333   60.6934   50.3870 Y7         2 LUT     -0.405615
    155 C17        68.3322   60.5991   49.5297 Y7         2 LUT     -0.405615
    156 C18        65.5609   63.8021   46.7652 Y9         2 LUT     -0.369639
    157 C19        68.1180   60.2244   44.2737 W1         2 LUT     -0.333362
    158 C20        71.5024   62.1366   40.1135 W2         2 LUT     -0.323439
    159 C21        85.8833   64.9253   34.5705 Z1         2 LUT      0.406104
    160 C22        86.5909   64.2911   33.3522 Z2         2 LUT     -0.404965
    161 C23        86.6424   65.1055   32.0621 Z3         2 LUT      0.391255
    162 O23        87.1593   64.2430   30.9986 S1         2 LUT     -0.528210
    163 C24        85.3231   65.8155   31.8835 W6         2 LUT     -0.258361
    164 C25        84.4521   66.0711   32.8222 Z5         2 LUT      0.133546
    165 C26        84.4127   65.3455   34.1788 W8         2 LUT     -0.147008
    166 C27        83.6410   66.0351   35.2752 Z7         2 LUT      0.023843
    167 C28        82.5309   65.4220   35.8863 Z8         2 LUT     -0.216987
    168 C29        81.9401   65.8861   37.1929 Z9         2 LUT      0.206524
    169 C30        80.8484   65.2177   37.5922 Y1         2 LUT     -0.215556
    170 C31        80.1340   65.2744   38.8255 Y2         2 LUT      0.025142
    171 C32        78.8140   64.7603   38.8968 Y3         2 LUT     -0.212209
    172 C33        77.8820   64.7083   39.9583 Y4         2 LUT      0.240937
    173 C34        76.7107   63.9618   39.8401 Y5         2 LUT     -0.218862
    174 C35        75.4929   64.0270   40.7961 Y6         2 LUT     -0.023547
    175 C36        86.8238   66.1029   34.9737 Y7         2 LUT     -0.393485
    176 C37        85.8344   63.8830   35.6457 Y7         2 LUT     -0.393485
    177 C38        83.1862   66.8625   32.4544 Y9         2 LUT     -0.387526
    178 C39        82.5534   67.0383   37.9810 W1         2 LUT     -0.322618
    179 C40        78.3492   65.2355   41.2241 W2         2 LUT     -0.358472
    180 H403       79.4258   65.3088   41.3561 R7         2 LUT      0.097720
    181 H402       77.9578   66.2524   41.2780 R7         2 LUT      0.097720
    182 H401       77.9906   64.6238   42.0439 R7         2 LUT      0.097720
    183 H393       81.9467   67.3447   38.7987 R4         2 LUT      0.082505
    184 H392       83.5463   66.7843   38.4946 R4         2 LUT      0.082505
    185 H391       82.7272   67.9131   37.4069 R4         2 LUT      0.082505
    186 H383       82.9472   67.5838   33.2270 R1         2 LUT      0.104030
    187 H382       83.2822   67.3074   31.4408 R1         2 LUT      0.104030
    188 H381       82.3441   66.1513   32.3692 R1         2 LUT      0.104030
    189 H373       85.4297   64.2563   36.6076 T4         2 LUT      0.089537
    190 H372       85.2704   63.0057   35.4315 T4         2 LUT      0.089537
    191 H371       86.7910   63.4449   35.9741 T4         2 LUT      0.089537
    192 H363       86.8922   66.7957   34.1533 T4         2 LUT      0.089537
    193 H362       86.4208   66.6053   35.8690 T4         2 LUT      0.089537
    194 H361       87.8140   65.7722   35.2752 T4         2 LUT      0.089537
    195 H222       87.6206   63.9830   33.5895 U2         2 LUT      0.127376
    196 H221       86.1357   63.3339   33.1602 U2         2 LUT      0.127376
    197 H203       71.5116   60.9833   40.0412 R7         2 LUT      0.087068
    198 H202       70.5131   62.4170   39.9134 R7         2 LUT      0.087068
    199 H201       72.0667   62.5497   39.2843 R7         2 LUT      0.087068
    200 H193       67.0741   60.2733   44.0654 R4         2 LUT      0.089716
    201 H192       68.5109   59.9511   43.2529 R4         2 LUT      0.089716
    202 H191       68.2516   59.2595   44.8373 R4         2 LUT      0.089716
    203 H183       66.2206   64.7119   46.9306 R1         2 LUT      0.094572
    204 H182       66.0023   63.3161   45.8491 R1         2 LUT      0.094572
    205 H181       64.5064   64.1935   46.5322 R1         2 LUT      0.094572
    206 H173       69.1990   61.1440   49.2464 T4         2 LUT      0.093752
    207 H172       68.6170   60.2700   50.5695 T4         2 LUT      0.093752
    208 H171       68.2456   59.5998   48.9276 T4         2 LUT      0.093752
    209 H163       66.2791   60.4828   51.3520 T4         2 LUT      0.093752
    210 H162       64.9803   61.2249   50.5048 T4         2 LUT      0.093752
    211 H161       65.7052   59.6493   49.9907 T4         2 LUT      0.093752
    212 HO3        66.1034   65.6416   51.0085 Q1         2 LUT      0.300121
    213 H8         68.5528   62.7174   46.7286 U7         2 LUT      0.080784
    214 H7         66.6673   60.4397   46.4567 U6         2 LUT      0.042190
    215 H42        64.3116   63.2348   49.5729 U5         2 LUT      0.145166
    216 H41        64.8448   64.7552   48.9123 U5         2 LUT      0.145166
    217 H35        75.5766   64.5831   41.7196 T3         2 LUT      0.077919
    218 H34        76.5746   63.4570   38.8969 T2         2 LUT      0.073626
    219 H32        78.4073   64.3459   38.0035 T1         2 LUT      0.092510
    220 H31        80.6206   65.6987   39.7169 U9         2 LUT      0.070048
    221 H30        80.4668   64.4678   36.8894 U8         2 LUT      0.085442
    222 H3         65.6768   63.3322   51.3280 U3         2 LUT     -0.031596
    223 H28        82.1578   64.5125   35.3937 U7         2 LUT      0.084728
    224 H27        84.1045   66.8884   35.7096 U6         2 LUT      0.087291
    225 H26        83.7543   64.4995   33.8292 Q6         2 LUT      0.075325
    226 H24        85.2596   66.2351   30.8813 Q5         2 LUT      0.094482
    227 H23        87.3534   65.9428   32.2443 U3         2 LUT     -0.024869
    228 H22        67.5397   62.5577   51.2672 U2         2 LUT      0.127376
    229 H21        68.1486   63.2729   49.8008 U2         2 LUT      0.127376
    230 H15        74.3605   62.5539   39.7002 T3         2 LUT      0.093200
    231 H14        73.5156   63.8766   42.3761 T2         2 LUT      0.068865
    232 H12        71.7749   63.4532   43.4181 T1         2 LUT      0.095507
    233 H11        69.9782   61.3429   42.2603 U9         2 LUT      0.068930
    234 H10        70.0221   63.0599   44.9479 U8         2 LUT      0.083911
    235 H1         86.8733   64.4938   30.1124 Q1         2 LUT      0.297311
@<TRIPOS>BOND
    1     6     1 1
    2     7     2 1
    3     8     3 1
    4     9     4 1
    5    11     4 1
    6    12     6 1
    7    13     9 1
    8    16     9 1
    9    25     5 1
   10    25    16 1
   11    26    10 1
   12    26    17 1
   13    27    18 1
   14    28    14 1
   15    28    19 1
   16    29    12 1
   17    30    13 1
   18    31    24 1
   19    32     1 1
   20    32    25 1
   21    33    21 1
   22    33    26 1
   23    34    22 1
   24    34    27 1
   25    35    23 1
   26    35    28 1
   27    36    12 1
   28    36    24 1
   29    37    13 1
   30    37    15 1
   31    38    31 1
   32    39    20 1
   33    39    32 1
   34    40     2 1
   35    40    33 1
   36    41     3 1
   37    41    34 1
   38    42     4 1
   39    42    35 1
   40    43    38 1
   41    44     5 1
   42    44    17 1
   43    44    39 1
   44    45    10 1
   45    45    18 1
   46    45    40 1
   47    46    19 1
   48    46    41 1
   49    47    14 1
   50    47    16 1
   51    47    42 1
   52    48    38 1
   53    49    48 1
   54    50    49 1
   55    51    50 1
   56    52    51 1
   57    53    51 1
   58    54    53 1
   59    55    54 1
   60    56    55 1
   61    57    56 1
   62    58    56 1
   63    59    58 1
   64    60    59 1
   65    61    60 1
   66    62    61 1
   67    63    61 1
   68    64    27 1
   69    64    46 1
   70    65     5 1
   71    65    10 1
   72    65    64 1
   73    65    14 1
   74    66    23 1
   75    67    23 1
   76    68    23 1
   77    69    22 1
   78    70    22 1
   79    71    22 1
   80    72    21 1
   81    73    21 1
   82    74    21 1
   83    75    20 1
   84    76    20 1
   85    77    20 1
   86    78    15 1
   87    79    15 1
   88    80    15 1
   89    81     8 1
   90    82     8 1
   91    83     8 1
   92    84     7 1
   93    85     7 1
   94    86     6 1
   95    87     6 1
   96    88     3 1
   97    89     3 1
   98    90     1 1
   99    91     1 1
  100    92    63 1
  101    93    63 1
  102    94    63 1
  103    95    62 1
  104    96    62 1
  105    97    62 1
  106    98    60 1
  107    99    60 1
  108   100    59 1
  109   101    59 1
  110   102    58 1
  111   103    58 1
  112   104    57 1
  113   105    57 1
  114   106    57 1
  115   107    55 1
  116   108    55 1
  117   109    54 1
  118   110    54 1
  119   111    53 1
  120   112    53 1
  121   113    19 1
  122   114    18 1
  123   115    17 1
  124   116     9 1
  125   117     2 1
  126   118    52 1
  127   119    52 1
  128   120    52 1
  129   121    51 1
  130   122    50 1
  131   123    50 1
  132   124    49 1
  133   125    49 1
  134   126    48 1
  135   127    48 1
  136   128    43 1
  137   129    43 1
  138   130    43 1
  139   131    39 1
  140   132    32 1
  141   133    31 1
  142   134    61 1
  143   135    56 1
  144   136    24 1
  145   137    24 1
  146   139   138 1
  147   140   139 1
  148   141   140 1
  149   142   140 1
  150   143   142 1
  151   144   138 1
  152   144   143 1
  153   145   144 1
  154   146   145 1
  155   147   146 1
  156   148   147 1
  157   149   148 1
  158   150   149 1
  159   151   150 1
  160   152   151 1
  161   153   152 1
  162   154   138 1
  163   155   138 1
  164   156   143 1
  165   157   147 1
  166   158   151 1
  167   160   159 1
  168   161   160 1
  169   162   161 1
  170   163   161 1
  171   164   163 1
  172   165   159 1
  173   165   164 1
  174   166   165 1
  175   167   166 1
  176   168   167 1
  177   169   168 1
  178   170   169 1
  179   171   170 1
  180   172   171 1
  181   173   172 1
  182   174   153 1
  183   174   173 1
  184   175   159 1
  185   176   159 1
  186   177   164 1
  187   178   168 1
  188   179   172 1
  189   180   179 1
  190   181   179 1
  191   182   179 1
  192   183   178 1
  193   184   178 1
  194   185   178 1
  195   186   177 1
  196   187   177 1
  197   188   177 1
  198   189   176 1
  199   190   176 1
  200   191   176 1
  201   192   175 1
  202   193   175 1
  203   194   175 1
  204   195   160 1
  205   196   160 1
  206   197   158 1
  207   198   158 1
  208   199   158 1
  209   200   157 1
  210   201   157 1
  211   202   157 1
  212   203   156 1
  213   204   156 1
  214   205   156 1
  215   206   155 1
  216   207   155 1
  217   208   155 1
  218   209   154 1
  219   210   154 1
  220   211   154 1
  221   212   141 1
  222   213   146 1
  223   214   145 1
  224   215   142 1
  225   216   142 1
  226   217   174 1
  227   218   173 1
  228   219   171 1
  229   220   170 1
  230   221   169 1
  231   222   140 1
  232   223   167 1
  233   224   166 1
  234   225   165 1
  235   226   163 1
  236   227   161 1
  237   228   139 1
  238   229   139 1
  239   230   153 1
  240   231   152 1
  241   232   150 1
  242   233   149 1
  243   234   148 1
  244   235   162 1
  245   65    153 1
  246   65    174 1
@<TRIPOS>SUBSTRUCTURE
      1 CLA               1 ****               0 ****  **** 
      2 LUT             138 ****               0 ****  **** 
