@<TRIPOS>MOLECULE
Cpptraj generated mol2 file.
  235   246     2     0     0
SMALL
USER_CHARGES


@<TRIPOS>ATOM
      1 CAA        78.5932   57.2726   34.1867 a2         1 CLA     -0.055900
      2 CAB        77.8842   61.4567   43.1385 c8         1 CLA     -0.148500
      3 CAC        71.2603   56.7137   42.2987 a2         1 CLA     -0.012600
      4 CAD        74.5607   54.7243   35.1036 ck         1 CLA      0.398800
      5 NA         77.4666   57.7694   37.5586 ns         1 CLA     -0.225500
      6 CBA        79.8567   57.3547   33.3583 a2         1 CLA     -0.135000
      7 CBB        79.0251   61.7374   43.8395 c0         1 CLA     -0.395200
      8 CBC        71.5164   55.1865   42.3902 a3         1 CLA     -0.037700
      9 CBD        76.0822   55.2903   34.9375 a1         1 CLA     -0.053900
     10 NB         77.0224   59.2068   40.2445 nm         1 CLA     -0.295700
     11 OBD        74.0153   54.0079   34.2771 o2         1 CLA     -0.494600
     12 CGA        80.5910   55.9907   33.1537 c4         1 CLA      0.827000
     13 CGD        77.0379   54.1319   34.8832 c4         1 CLA      0.655300
     14 ND         74.6353   56.7881   37.9643 nm         1 CLA     -0.291600
     15 CED        77.5952   52.1434   36.0313 a3         1 CLA      0.005400
     16 CHA        76.2590   56.3072   36.1044 cs         1 CLA     -0.123800
     17 CHB        78.9731   59.3213   38.6355 aa         1 CLA     -0.291900
     18 CHC        75.4417   59.3780   42.1042 aa         1 CLA     -0.090400
     19 CHD        72.5653   56.6410   39.3143 aa         1 CLA     -0.052000
     20 CMA        80.9733   57.7826   36.8777 a3         1 CLA     -0.230700
     21 CMB        79.9075   61.5279   40.5702 a3         1 CLA     -0.180800
     22 CMC        73.0378   58.3472   43.9841 a3         1 CLA     -0.134000
     23 CMD        71.7579   54.5834   37.0520 a3         1 CLA     -0.141100
     24 C1         82.0599   54.5544   34.3347 a2         1 CLA      0.023000
     25 C1A        77.3993   56.9546   36.4590 ac         1 CLA     -0.015100
     26 C1B        78.2637   59.6307   39.8487 cr         1 CLA      0.054700
     27 C1C        74.3210   58.6677   41.6681 cn         1 CLA     -0.005600
     28 C1D        73.3576   56.3042   38.1767 ap         1 CLA     -0.047300
     29 O1A        80.2791   55.1362   32.3155 o2         1 CLA     -0.610800
     30 O1D        77.8871   53.9826   34.0215 o2         1 CLA     -0.558200
     31 C2         81.4404   53.8529   35.5504 c8         1 CLA     -0.325100
     32 C2A        78.7161   56.9569   35.7024 a1         1 CLA      0.098600
     33 C2B        78.7838   60.6030   40.7967 cb         1 CLA      0.088500
     34 C2C        73.2015   58.1306   42.5230 cb         1 CLA      0.053700
     35 C2D        73.0135   55.3588   37.1657 cb         1 CLA      0.058900
     36 O2A        81.4658   55.8376   34.1828 o1         1 CLA     -0.437200
     37 O2D        76.7497   53.3072   35.9582 o1         1 CLA     -0.357600
     38 C3         82.0359   53.0227   36.4692 c5         1 CLA      0.031200
     39 C3A        79.5205   58.1428   36.4570 a1         1 CLA      0.166800
     40 C3B        77.8174   60.6463   41.8933 cb         1 CLA      0.035000
     41 C3C        72.3514   57.4538   41.7368 cb         1 CLA     -0.089900
     42 C3D        74.1091   55.2846   36.3125 cb         1 CLA     -0.035900
     43 C4         82.2608   51.5544   36.2481 a3         1 CLA     -0.053300
     44 C4A        78.6231   58.4166   37.6577 ac         1 CLA      0.001800
     45 C4B        76.6901   59.7160   41.4687 cn         1 CLA     -0.020900
     46 C4C        73.0194   57.3260   40.4266 cr         1 CLA     -0.044400
     47 C4D        75.0740   56.2580   36.8218 c6         1 CLA     -0.046000
     48 C5         82.7036   53.6214   37.6456 a2         1 CLA     -0.070400
     49 C6         83.5402   54.8295   37.3662 a2         1 CLA      0.043900
     50 C7         83.9350   55.5596   38.6376 a2         1 CLA     -0.150000
     51 C8         84.9147   56.7529   38.5477 a1         1 CLA      0.064200
     52 C9         86.3596   56.2603   38.1063 a3         1 CLA     -0.259300
     53 C10        85.0527   57.5616   39.8429 a2         1 CLA     -0.071900
     54 C11        83.7220   58.0179   40.4819 a2         1 CLA      0.014500
     55 C12        84.0453   59.0098   41.6523 a2         1 CLA     -0.112100
     56 C13        84.7883   58.4474   42.9198 a1         1 CLA      0.089200
     57 C14        84.1989   57.0695   43.5752 a3         1 CLA     -0.239100
     58 C15        85.0562   59.5131   44.0458 a2         1 CLA     -0.102200
     59 C16        83.8524   60.4395   44.4543 a2         1 CLA      0.023900
     60 C17        84.2575   61.3047   45.7325 a2         1 CLA     -0.105700
     61 C18        83.1412   61.9911   46.4918 a1         1 CLA      0.206800
     62 C19        82.2562   60.9754   47.3053 a3         1 CLA     -0.280100
     63 C20        83.7079   62.9618   47.5582 a3         1 CLA     -0.280100
     64 NC         74.1497   58.1891   40.3698 nx         1 CLA     -0.309200
     65 MG         75.7239   58.1836   38.9160 mg         1 CLA      0.895000
     66 HMD3       71.6735   54.0339   37.9696 dc         1 CLA      0.064300
     67 HMD2       70.8829   55.1952   37.0804 dc         1 CLA      0.064300
     68 HMD1       71.7160   53.9943   36.1197 dc         1 CLA      0.064300
     69 HMC3       73.7045   59.1534   44.2568 dc         1 CLA      0.052100
     70 HMC2       72.0687   58.7865   44.2118 dc         1 CLA      0.052100
     71 HMC1       73.1654   57.4668   44.5819 dc         1 CLA      0.052100
     72 HMB3       80.7504   60.8941   40.7023 dc         1 CLA      0.063600
     73 HMB2       79.9019   61.9001   39.5021 dc         1 CLA      0.063600
     74 HMB1       79.9686   62.3790   41.2184 dc         1 CLA      0.063600
     75 HMA3       81.2704   58.2263   37.8476 dc         1 CLA      0.058300
     76 HMA2       81.0954   56.6911   37.0496 dc         1 CLA      0.058300
     77 HMA1       81.6795   58.0335   36.0362 dc         1 CLA      0.058300
     78 HED3       77.4301   51.5645   36.9786 dc         1 CLA      0.079300
     79 HED2       77.4717   51.5295   35.1613 dc         1 CLA      0.079300
     80 HED1       78.6135   52.4461   35.9694 dc         1 CLA      0.079300
     81 HBC3       72.5069   54.9740   42.8336 dc         1 CLA      0.016300
     82 HBC2       70.7862   54.6892   42.9487 dc         1 CLA      0.016300
     83 HBC1       71.4402   54.7846   41.3909 dc         1 CLA      0.016300
     84 HBB2       79.0166   62.3665   44.7257 da         1 CLA      0.183000
     85 HBB1       80.0253   61.4141   43.4186 da         1 CLA      0.183000
     86 HBA2       79.7501   57.8594   32.4408 dc         1 CLA      0.029400
     87 HBA1       80.5758   57.9804   33.8579 dc         1 CLA      0.029400
     88 HAC2       71.0218   57.0065   43.3443 dc         1 CLA      0.029300
     89 HAC1       70.3953   56.8652   41.6940 dc         1 CLA      0.029300
     90 HAA2       77.9871   56.5490   33.7603 dc         1 CLA      0.028700
     91 HAA1       78.1877   58.2787   34.0976 dc         1 CLA      0.028700
     92 H203       84.4328   62.3377   48.1082 dc         1 CLA      0.065600
     93 H202       84.2419   63.7914   47.0890 dc         1 CLA      0.065600
     94 H201       82.9238   63.3297   48.1662 dc         1 CLA      0.065600
     95 H193       81.6571   61.5495   47.9810 dc         1 CLA      0.065600
     96 H192       81.5816   60.4599   46.6152 dc         1 CLA      0.065600
     97 H191       82.9703   60.3103   47.8450 dc         1 CLA      0.065600
     98 H172       84.7825   60.6592   46.3333 dc         1 CLA      0.027600
     99 H171       84.9774   62.1072   45.4583 dc         1 CLA      0.027600
    100 H162       83.5892   61.1161   43.6168 dc         1 CLA      0.002900
    101 H161       83.0001   59.8725   44.7234 dc         1 CLA      0.002900
    102 H152       85.4340   59.0032   44.9107 dc         1 CLA      0.029100
    103 H151       85.7794   60.1681   43.5684 dc         1 CLA      0.029100
    104 H143       83.1295   57.3033   43.9428 dc         1 CLA      0.063600
    105 H142       84.0494   56.2796   42.8624 dc         1 CLA      0.063600
    106 H141       84.8377   56.6735   44.4030 dc         1 CLA      0.063600
    107 H122       84.6976   59.7664   41.2073 dc         1 CLA      0.032500
    108 H121       83.0945   59.4367   41.9313 dc         1 CLA      0.032500
    109 H112       83.1422   58.6156   39.7698 dc         1 CLA      0.006600
    110 H111       83.1117   57.2100   40.7746 dc         1 CLA      0.006600
    111 H102       85.6875   56.9796   40.5080 dc         1 CLA      0.024100
    112 H101       85.5388   58.5018   39.6947 dc         1 CLA      0.024100
    113 HHD        71.6808   56.0852   39.3437 da         1 CLA      0.174300
    114 HHC        75.2539   59.6652   43.0939 da         1 CLA      0.136800
    115 HHB        79.8760   59.9829   38.4842 da         1 CLA      0.138300
    116 HBD        75.9273   55.8357   34.0742 dc         1 CLA      0.107700
    117 HAB        76.9358   61.8535   43.4852 da         1 CLA      0.155200
    118 H93        86.3882   55.8075   37.1595 dc         1 CLA      0.069500
    119 H92        86.9970   57.1497   38.0886 dc         1 CLA      0.069500
    120 H91        86.7076   55.4526   38.8080 dc         1 CLA      0.069500
    121 H8         84.4659   57.3314   37.7058 dc         1 CLA      0.029300
    122 H72        82.9511   55.9013   38.9300 dc         1 CLA      0.044400
    123 H71        84.4391   55.0097   39.4236 dc         1 CLA      0.044400
    124 H62        84.4126   54.4814   36.8655 dc         1 CLA      0.015600
    125 H61        83.0253   55.5645   36.7604 dc         1 CLA      0.015600
    126 H52        81.9750   53.8777   38.4154 dc         1 CLA      0.033200
    127 H51        83.4960   52.9491   38.0106 dc         1 CLA      0.033200
    128 H43        81.7877   50.9276   36.9659 dc         1 CLA      0.037000
    129 H42        82.0417   51.1199   35.2508 dc         1 CLA      0.037000
    130 H41        83.3007   51.3414   36.3866 dc         1 CLA      0.037000
    131 H3A        79.5493   59.0382   35.8701 dc         1 CLA      0.041100
    132 H2A        79.1204   56.0015   35.9506 dc         1 CLA      0.083100
    133 H2         80.3572   54.0377   35.7456 da         1 CLA      0.180900
    134 H18        82.5312   62.6145   45.7758 dc         1 CLA     -0.003900
    135 H13        85.8184   58.0997   42.5467 dc         1 CLA      0.019700
    136 H12        82.0470   53.8855   33.4899 dc         1 CLA      0.120400
    137 H11        83.0802   54.8199   34.5878 dc         1 CLA      0.120400
    138 C1         68.4304   60.7201   50.0061 Z1         2 LUT      0.509236
    139 C2         67.0251   60.6930   50.6223 Z2         2 LUT     -0.434695
    140 C3         66.3520   61.9963   50.8136 Z3         2 LUT      0.437453
    141 O3         66.7079   62.6720   52.0213 S1         2 LUT     -0.547129
    142 C4         66.6727   62.9020   49.6617 Z4         2 LUT     -0.468603
    143 C5         67.4212   62.3795   48.4484 Z5         2 LUT      0.279246
    144 C6         68.3079   61.3377   48.5711 Z6         2 LUT     -0.305473
    145 C7         68.8003   60.6765   47.3001 Z7         2 LUT      0.069402
    146 C8         69.5216   61.3231   46.3716 Z8         2 LUT     -0.191631
    147 C9         69.7689   60.9887   44.9588 Z9         2 LUT      0.196698
    148 C10        70.8636   61.6901   44.4437 Y1         2 LUT     -0.208611
    149 C11        71.5108   61.6700   43.2016 Y2         2 LUT      0.030784
    150 C12        72.6235   62.3531   42.8620 Y3         2 LUT     -0.220316
    151 C13        73.4763   62.3553   41.6773 Y4         2 LUT      0.215937
    152 C14        74.6201   63.1345   41.6239 Y5         2 LUT     -0.185793
    153 C15        75.7354   63.1617   40.6310 Y6         2 LUT     -0.057835
    154 C16        68.8976   59.2871   49.9937 Y7         2 LUT     -0.405615
    155 C17        69.2407   61.4733   51.0868 Y7         2 LUT     -0.405615
    156 C18        66.8151   62.9161   47.1256 Y9         2 LUT     -0.369639
    157 C19        69.0816   59.8941   44.2377 W1         2 LUT     -0.333362
    158 C20        73.0002   61.5661   40.4367 W2         2 LUT     -0.323439
    159 C21        86.8972   64.8007   35.1720 Z1         2 LUT      0.406104
    160 C22        87.6873   64.2353   33.9913 Z2         2 LUT     -0.404965
    161 C23        87.8153   64.9044   32.6650 Z3         2 LUT      0.391255
    162 O23        88.5581   64.0265   31.7870 S1         2 LUT     -0.528210
    163 C24        86.4978   65.4524   32.2668 W6         2 LUT     -0.258361
    164 C25        85.4695   65.7377   33.0741 Z5         2 LUT      0.133546
    165 C26        85.4670   65.3374   34.5968 W8         2 LUT     -0.147008
    166 C27        84.8164   66.3634   35.5185 Z7         2 LUT      0.023843
    167 C28        83.7257   65.9269   36.1672 Z8         2 LUT     -0.216987
    168 C29        83.1069   66.4221   37.3886 Z9         2 LUT      0.206524
    169 C30        82.0541   65.7394   37.9168 Y1         2 LUT     -0.215556
    170 C31        81.1225   65.8403   38.9508 Y2         2 LUT      0.025142
    171 C32        80.0397   65.0349   39.0668 Y3         2 LUT     -0.212209
    172 C33        79.0893   64.9551   40.1500 Y4         2 LUT      0.240937
    173 C34        77.9496   64.1618   39.8966 Y5         2 LUT     -0.218862
    174 C35        76.8516   63.9866   40.7986 Y6         2 LUT     -0.023547
    175 C36        87.7411   65.7992   35.9932 Y7         2 LUT     -0.393485
    176 C37        86.6670   63.6510   36.1937 Y7         2 LUT     -0.393485
    177 C38        84.2688   66.4202   32.4870 Y9         2 LUT     -0.387526
    178 C39        83.5881   67.5681   38.1761 W1         2 LUT     -0.322618
    179 C40        79.4076   65.7578   41.4490 W2         2 LUT     -0.358472
    180 H403       79.2607   65.2049   42.3705 R7         2 LUT      0.097720
    181 H402       80.4322   66.0392   41.4851 R7         2 LUT      0.097720
    182 H401       78.8814   66.7070   41.5418 R7         2 LUT      0.097720
    183 H393       84.6196   67.2962   38.4786 R4         2 LUT      0.082505
    184 H392       83.6652   68.4221   37.5287 R4         2 LUT      0.082505
    185 H391       83.0192   67.8121   39.0833 R4         2 LUT      0.082505
    186 H383       84.5523   66.8529   31.4678 R1         2 LUT      0.104030
    187 H382       83.4048   65.7540   32.3285 R1         2 LUT      0.104030
    188 H381       83.9953   67.2624   33.1418 R1         2 LUT      0.104030
    189 H373       87.5881   63.1974   36.5809 T4         2 LUT      0.089537
    190 H372       85.9333   63.9697   36.9392 T4         2 LUT      0.089537
    191 H371       86.1444   62.8645   35.6463 T4         2 LUT      0.089537
    192 H363       88.5672   65.2450   36.4007 T4         2 LUT      0.089537
    193 H362       88.0739   66.7407   35.4881 T4         2 LUT      0.089537
    194 H361       87.1537   66.1472   36.8414 T4         2 LUT      0.089537
    195 H222       88.7040   64.1261   34.3001 U2         2 LUT      0.127376
    196 H221       87.3814   63.2189   33.8759 U2         2 LUT      0.127376
    197 H203       72.4024   60.7424   40.7026 R7         2 LUT      0.087068
    198 H202       72.3487   62.1375   39.7804 R7         2 LUT      0.087068
    199 H201       73.7573   61.1327   39.8423 R7         2 LUT      0.087068
    200 H193       68.7936   60.2011   43.2363 R4         2 LUT      0.089716
    201 H192       69.6427   58.9752   44.1464 R4         2 LUT      0.089716
    202 H191       68.1560   59.6436   44.7852 R4         2 LUT      0.089716
    203 H183       66.9736   62.3219   46.2566 R1         2 LUT      0.094572
    204 H182       65.7508   63.2323   47.2225 R1         2 LUT      0.094572
    205 H181       67.3747   63.8845   47.0396 R1         2 LUT      0.094572
    206 H173       69.0606   61.1838   52.1362 T4         2 LUT      0.093752
    207 H172       70.3387   61.5527   50.9048 T4         2 LUT      0.093752
    208 H171       69.0859   62.5371   51.0205 T4         2 LUT      0.093752
    209 H163       68.1590   58.7123   49.4254 T4         2 LUT      0.093752
    210 H162       69.8593   59.2262   49.4287 T4         2 LUT      0.093752
    211 H161       69.0860   58.7908   50.9002 T4         2 LUT      0.093752
    212 HO3        66.4059   62.2310   52.7977 Q1         2 LUT      0.300121
    213 H8         69.7963   62.3428   46.5822 U7         2 LUT      0.080784
    214 H7         68.3826   59.6454   47.2163 U6         2 LUT      0.042190
    215 H42        65.7821   63.4145   49.3471 U5         2 LUT      0.145166
    216 H41        67.3685   63.6131   50.0338 U5         2 LUT      0.145166
    217 H35        76.8019   64.5947   41.7319 T3         2 LUT      0.077919
    218 H34        77.8405   63.6401   38.9886 T2         2 LUT      0.073626
    219 H32        79.7603   64.3744   38.3022 T1         2 LUT      0.092510
    220 H31        81.3356   66.5310   39.8313 U9         2 LUT      0.070048
    221 H30        81.7532   64.9393   37.2544 U8         2 LUT      0.085442
    222 H3         65.2233   61.8659   50.8133 U3         2 LUT     -0.031596
    223 H28        83.4137   64.9006   35.7936 U7         2 LUT      0.084728
    224 H27        85.4342   67.1980   35.9344 U6         2 LUT      0.087291
    225 H26        85.0346   64.3178   34.5938 Q6         2 LUT      0.075325
    226 H24        86.4158   65.7882   31.3125 Q5         2 LUT      0.094482
    227 H23        88.4094   65.8074   32.7323 U3         2 LUT     -0.024869
    228 H22        66.3863   60.1152   49.9926 U2         2 LUT      0.127376
    229 H21        66.9564   60.1239   51.5586 U2         2 LUT      0.127376
    230 H15        75.8424   62.3476   39.8960 T3         2 LUT      0.093200
    231 H14        74.7491   63.6414   42.5981 T2         2 LUT      0.068865
    232 H12        72.9597   62.9944   43.7071 T1         2 LUT      0.095507
    233 H11        71.0649   60.9371   42.4546 U9         2 LUT      0.068930
    234 H10        71.2399   62.5141   45.0750 U8         2 LUT      0.083911
    235 H1         88.4341   64.2688   30.8523 Q1         2 LUT      0.297311
@<TRIPOS>BOND
    1     6     1 1
    2     7     2 1
    3     8     3 1
    4     9     4 1
    5    11     4 1
    6    12     6 1
    7    13     9 1
    8    16     9 1
    9    25     5 1
   10    25    16 1
   11    26    10 1
   12    26    17 1
   13    27    18 1
   14    28    14 1
   15    28    19 1
   16    29    12 1
   17    30    13 1
   18    31    24 1
   19    32     1 1
   20    32    25 1
   21    33    21 1
   22    33    26 1
   23    34    22 1
   24    34    27 1
   25    35    23 1
   26    35    28 1
   27    36    12 1
   28    36    24 1
   29    37    13 1
   30    37    15 1
   31    38    31 1
   32    39    20 1
   33    39    32 1
   34    40     2 1
   35    40    33 1
   36    41     3 1
   37    41    34 1
   38    42     4 1
   39    42    35 1
   40    43    38 1
   41    44     5 1
   42    44    17 1
   43    44    39 1
   44    45    10 1
   45    45    18 1
   46    45    40 1
   47    46    19 1
   48    46    41 1
   49    47    14 1
   50    47    16 1
   51    47    42 1
   52    48    38 1
   53    49    48 1
   54    50    49 1
   55    51    50 1
   56    52    51 1
   57    53    51 1
   58    54    53 1
   59    55    54 1
   60    56    55 1
   61    57    56 1
   62    58    56 1
   63    59    58 1
   64    60    59 1
   65    61    60 1
   66    62    61 1
   67    63    61 1
   68    64    27 1
   69    64    46 1
   70    65     5 1
   71    65    10 1
   72    65    64 1
   73    65    14 1
   74    66    23 1
   75    67    23 1
   76    68    23 1
   77    69    22 1
   78    70    22 1
   79    71    22 1
   80    72    21 1
   81    73    21 1
   82    74    21 1
   83    75    20 1
   84    76    20 1
   85    77    20 1
   86    78    15 1
   87    79    15 1
   88    80    15 1
   89    81     8 1
   90    82     8 1
   91    83     8 1
   92    84     7 1
   93    85     7 1
   94    86     6 1
   95    87     6 1
   96    88     3 1
   97    89     3 1
   98    90     1 1
   99    91     1 1
  100    92    63 1
  101    93    63 1
  102    94    63 1
  103    95    62 1
  104    96    62 1
  105    97    62 1
  106    98    60 1
  107    99    60 1
  108   100    59 1
  109   101    59 1
  110   102    58 1
  111   103    58 1
  112   104    57 1
  113   105    57 1
  114   106    57 1
  115   107    55 1
  116   108    55 1
  117   109    54 1
  118   110    54 1
  119   111    53 1
  120   112    53 1
  121   113    19 1
  122   114    18 1
  123   115    17 1
  124   116     9 1
  125   117     2 1
  126   118    52 1
  127   119    52 1
  128   120    52 1
  129   121    51 1
  130   122    50 1
  131   123    50 1
  132   124    49 1
  133   125    49 1
  134   126    48 1
  135   127    48 1
  136   128    43 1
  137   129    43 1
  138   130    43 1
  139   131    39 1
  140   132    32 1
  141   133    31 1
  142   134    61 1
  143   135    56 1
  144   136    24 1
  145   137    24 1
  146   139   138 1
  147   140   139 1
  148   141   140 1
  149   142   140 1
  150   143   142 1
  151   144   138 1
  152   144   143 1
  153   145   144 1
  154   146   145 1
  155   147   146 1
  156   148   147 1
  157   149   148 1
  158   150   149 1
  159   151   150 1
  160   152   151 1
  161   153   152 1
  162   154   138 1
  163   155   138 1
  164   156   143 1
  165   157   147 1
  166   158   151 1
  167   160   159 1
  168   161   160 1
  169   162   161 1
  170   163   161 1
  171   164   163 1
  172   165   159 1
  173   165   164 1
  174   166   165 1
  175   167   166 1
  176   168   167 1
  177   169   168 1
  178   170   169 1
  179   171   170 1
  180   172   171 1
  181   173   172 1
  182   174   153 1
  183   174   173 1
  184   175   159 1
  185   176   159 1
  186   177   164 1
  187   178   168 1
  188   179   172 1
  189   180   179 1
  190   181   179 1
  191   182   179 1
  192   183   178 1
  193   184   178 1
  194   185   178 1
  195   186   177 1
  196   187   177 1
  197   188   177 1
  198   189   176 1
  199   190   176 1
  200   191   176 1
  201   192   175 1
  202   193   175 1
  203   194   175 1
  204   195   160 1
  205   196   160 1
  206   197   158 1
  207   198   158 1
  208   199   158 1
  209   200   157 1
  210   201   157 1
  211   202   157 1
  212   203   156 1
  213   204   156 1
  214   205   156 1
  215   206   155 1
  216   207   155 1
  217   208   155 1
  218   209   154 1
  219   210   154 1
  220   211   154 1
  221   212   141 1
  222   213   146 1
  223   214   145 1
  224   215   142 1
  225   216   142 1
  226   217   174 1
  227   218   173 1
  228   219   171 1
  229   220   170 1
  230   221   169 1
  231   222   140 1
  232   223   167 1
  233   224   166 1
  234   225   165 1
  235   226   163 1
  236   227   161 1
  237   228   139 1
  238   229   139 1
  239   230   153 1
  240   231   152 1
  241   232   150 1
  242   233   149 1
  243   234   148 1
  244   235   162 1
  245   65    153 1
  246   65    174 1
@<TRIPOS>SUBSTRUCTURE
      1 CLA               1 ****               0 ****  **** 
      2 LUT             138 ****               0 ****  **** 
