@<TRIPOS>MOLECULE
Cpptraj generated mol2 file.
  235   246     2     0     0
SMALL
USER_CHARGES


@<TRIPOS>ATOM
      1 CAA        79.5585   59.2362   33.3222 a2         1 CLA     -0.055900
      2 CAB        78.8192   62.7919   42.1664 c8         1 CLA     -0.148500
      3 CAC        72.1028   58.3958   41.0852 a2         1 CLA     -0.012600
      4 CAD        75.2634   56.7064   33.7423 ck         1 CLA      0.398800
      5 NA         78.3228   59.2803   36.5666 ns         1 CLA     -0.225500
      6 CBA        80.8745   59.0991   32.5049 a2         1 CLA     -0.135000
      7 CBB        79.9913   62.8191   42.9256 c0         1 CLA     -0.395200
      8 CBC        72.2000   56.9359   41.5590 a3         1 CLA     -0.037700
      9 CBD        76.7250   57.2519   33.5732 a1         1 CLA     -0.053900
     10 NB         77.9335   60.7719   39.1637 nm         1 CLA     -0.295700
     11 OBD        74.7403   55.9622   32.9209 o2         1 CLA     -0.494600
     12 CGA        81.3533   57.7076   31.9915 c4         1 CLA      0.827000
     13 CGD        77.6904   56.1904   33.1271 c4         1 CLA      0.655300
     14 ND         75.5004   58.4015   36.8365 nm         1 CLA     -0.291600
     15 CED        78.3041   53.8225   33.2138 a3         1 CLA      0.005400
     16 CHA        77.0446   57.9817   34.9172 cs         1 CLA     -0.123800
     17 CHB        79.9241   60.5949   37.7817 aa         1 CLA     -0.291900
     18 CHC        76.4485   60.8677   41.1306 aa         1 CLA     -0.090400
     19 CHD        73.5228   58.1675   38.2258 aa         1 CLA     -0.052000
     20 CMA        81.5787   58.1902   36.4982 a3         1 CLA     -0.230700
     21 CMB        81.0734   62.6729   39.8579 a3         1 CLA     -0.180800
     22 CMC        74.0095   60.0756   42.9923 a3         1 CLA     -0.134000
     23 CMD        72.3132   56.8306   35.5283 a3         1 CLA     -0.141100
     24 C1         82.1414   55.4958   32.5749 a2         1 CLA      0.023000
     25 C1A        78.2455   58.5666   35.3745 ac         1 CLA     -0.015100
     26 C1B        79.2147   61.1458   38.8866 cr         1 CLA      0.054700
     27 C1C        75.3600   60.0595   40.7142 cn         1 CLA     -0.005600
     28 C1D        74.2523   57.9181   37.0416 ap         1 CLA     -0.047300
     29 O1A        81.3561   57.3233   30.8496 o2         1 CLA     -0.610800
     30 O1D        78.6506   56.4170   32.4267 o2         1 CLA     -0.558200
     31 C2         82.4902   54.6384   33.8572 c8         1 CLA     -0.325100
     32 C2A        79.6148   58.4559   34.6519 a1         1 CLA      0.098600
     33 C2B        79.6589   62.0116   39.8686 cb         1 CLA      0.088500
     34 C2C        74.1851   59.7442   41.5126 cb         1 CLA      0.053700
     35 C2D        73.6681   57.3992   35.7742 cb         1 CLA      0.058900
     36 O2A        81.8242   56.8641   32.9711 o1         1 CLA     -0.437200
     37 O2D        77.4226   54.8956   33.5479 o1         1 CLA     -0.357600
     38 C3         83.3237   53.5797   33.9190 c5         1 CLA      0.031200
     39 C3A        80.5421   59.1354   35.7726 a1         1 CLA      0.166800
     40 C3B        78.7702   62.0876   40.9124 cb         1 CLA      0.035000
     41 C3C        73.3428   58.9771   40.6681 cb         1 CLA     -0.089900
     42 C3D        74.7828   57.2807   34.9431 cb         1 CLA     -0.035900
     43 C4         82.7779   52.1838   33.6536 a3         1 CLA     -0.053300
     44 C4A        79.5785   59.7448   36.7706 ac         1 CLA      0.001800
     45 C4B        77.6490   61.1947   40.4673 cn         1 CLA     -0.020900
     46 C4C        73.9697   58.8675   39.3850 cr         1 CLA     -0.044400
     47 C4D        75.8275   57.9923   35.6138 c6         1 CLA     -0.046000
     48 C5         84.7831   53.9719   33.9916 a2         1 CLA     -0.070400
     49 C6         85.2408   55.3098   34.6409 a2         1 CLA      0.043900
     50 C7         85.1983   55.2929   36.1964 a2         1 CLA     -0.150000
     51 C8         85.4488   56.6707   37.0188 a1         1 CLA      0.064200
     52 C9         86.8364   57.3105   36.7097 a3         1 CLA     -0.259300
     53 C10        85.2297   56.5130   38.5698 a2         1 CLA     -0.071900
     54 C11        85.1289   57.8613   39.2782 a2         1 CLA      0.014500
     55 C12        85.2937   57.6163   40.7833 a2         1 CLA     -0.112100
     56 C13        85.5379   58.9209   41.5990 a1         1 CLA      0.089200
     57 C14        87.0171   59.3642   41.6555 a3         1 CLA     -0.239100
     58 C15        85.0109   58.7471   43.0308 a2         1 CLA     -0.102200
     59 C16        84.8637   60.1134   43.6706 a2         1 CLA      0.023900
     60 C17        84.5090   60.0215   45.1899 a2         1 CLA     -0.105700
     61 C18        84.0831   61.3172   45.8657 a1         1 CLA      0.206800
     62 C19        82.6573   61.6783   45.5041 a3         1 CLA     -0.280100
     63 C20        84.1582   61.1645   47.4306 a3         1 CLA     -0.280100
     64 NC         75.1611   59.5444   39.4168 nx         1 CLA     -0.309200
     65 MG         76.7015   59.6304   37.9590 mg         1 CLA      0.895000
     66 HMD3       72.3414   55.7867   35.1186 dc         1 CLA      0.064300
     67 HMD2       71.7613   56.8324   36.5062 dc         1 CLA      0.064300
     68 HMD1       71.7730   57.4593   34.8183 dc         1 CLA      0.064300
     69 HMC3       73.3054   59.3489   43.4896 dc         1 CLA      0.052100
     70 HMC2       74.9581   60.1490   43.4793 dc         1 CLA      0.052100
     71 HMC1       73.6182   61.0619   43.0081 dc         1 CLA      0.052100
     72 HMB3       81.8836   62.0107   40.2401 dc         1 CLA      0.063600
     73 HMB2       81.3795   62.8860   38.8163 dc         1 CLA      0.063600
     74 HMB1       81.0063   63.5852   40.4872 dc         1 CLA      0.063600
     75 HMA3       81.1474   57.2298   36.7680 dc         1 CLA      0.058300
     76 HMA2       82.3426   57.9173   35.7716 dc         1 CLA      0.058300
     77 HMA1       81.9915   58.7595   37.3045 dc         1 CLA      0.058300
     78 HED3       79.1902   53.9118   33.8221 dc         1 CLA      0.079300
     79 HED2       77.7266   52.8838   33.5114 dc         1 CLA      0.079300
     80 HED1       78.6147   53.9070   32.1909 dc         1 CLA      0.079300
     81 HBC3       72.7374   56.7614   42.5188 dc         1 CLA      0.016300
     82 HBC2       71.1591   56.7189   41.8403 dc         1 CLA      0.016300
     83 HBC1       72.5248   56.2312   40.7750 dc         1 CLA      0.016300
     84 HBB2       80.0258   63.4284   43.9108 da         1 CLA      0.183000
     85 HBB1       80.8559   62.1572   42.6866 da         1 CLA      0.183000
     86 HBA2       80.6038   59.4851   31.5265 dc         1 CLA      0.029400
     87 HBA1       81.7275   59.4900   33.0057 dc         1 CLA      0.029400
     88 HAC2       71.8006   58.8454   42.0698 dc         1 CLA      0.029300
     89 HAC1       71.2500   58.5475   40.3707 dc         1 CLA      0.029300
     90 HAA2       78.6988   58.9071   32.7286 dc         1 CLA      0.028700
     91 HAA1       79.4602   60.2664   33.6831 dc         1 CLA      0.028700
     92 H203       85.1934   61.0080   47.6632 dc         1 CLA      0.065600
     93 H202       83.7593   62.0014   47.9252 dc         1 CLA      0.065600
     94 H201       83.6962   60.2504   47.7618 dc         1 CLA      0.065600
     95 H193       82.4363   61.5815   44.4729 dc         1 CLA      0.065600
     96 H192       81.8628   61.1783   46.1197 dc         1 CLA      0.065600
     97 H191       82.5492   62.7442   45.6789 dc         1 CLA      0.065600
     98 H172       83.9006   59.1345   45.3730 dc         1 CLA      0.027600
     99 H171       85.4172   59.7043   45.6547 dc         1 CLA      0.027600
    100 H162       85.7122   60.6728   43.8066 dc         1 CLA      0.002900
    101 H161       84.1143   60.6657   43.1402 dc         1 CLA      0.002900
    102 H152       84.0294   58.2739   43.1032 dc         1 CLA      0.029100
    103 H151       85.6382   58.0594   43.6653 dc         1 CLA      0.029100
    104 H143       87.5455   58.9579   42.5358 dc         1 CLA      0.063600
    105 H142       87.4603   59.1314   40.7275 dc         1 CLA      0.063600
    106 H141       87.0562   60.4049   41.7639 dc         1 CLA      0.063600
    107 H122       84.4438   57.1635   41.2007 dc         1 CLA      0.032500
    108 H121       86.1609   57.0811   41.0631 dc         1 CLA      0.032500
    109 H112       85.9648   58.5309   38.9855 dc         1 CLA      0.006600
    110 H111       84.1373   58.2302   39.1342 dc         1 CLA      0.006600
    111 H102       84.3884   55.8820   38.7041 dc         1 CLA      0.024100
    112 H101       86.0710   55.9044   38.9125 dc         1 CLA      0.024100
    113 HHD        72.5252   57.6603   38.3556 da         1 CLA      0.174300
    114 HHC        76.2808   61.3883   42.1145 da         1 CLA      0.136800
    115 HHB        80.9011   61.0489   37.7824 da         1 CLA      0.138300
    116 HBD        76.5631   57.9893   32.8172 dc         1 CLA      0.107700
    117 HAB        77.9555   63.3960   42.5512 da         1 CLA      0.155200
    118 H93        86.8436   58.3382   37.0183 dc         1 CLA      0.069500
    119 H92        87.5592   56.7756   37.3103 dc         1 CLA      0.069500
    120 H91        86.9818   57.3282   35.6606 dc         1 CLA      0.069500
    121 H8         84.6481   57.2747   36.7369 dc         1 CLA      0.029300
    122 H72        84.2082   54.8663   36.5167 dc         1 CLA      0.044400
    123 H71        86.0112   54.6700   36.6098 dc         1 CLA      0.044400
    124 H62        86.2765   55.4876   34.2798 dc         1 CLA      0.015600
    125 H61        84.6285   56.0625   34.2655 dc         1 CLA      0.015600
    126 H52        85.3575   53.2037   34.4916 dc         1 CLA      0.033200
    127 H51        85.0275   53.9976   32.9201 dc         1 CLA      0.033200
    128 H43        81.6729   52.2924   33.6165 dc         1 CLA      0.037000
    129 H42        83.1406   51.8551   32.6579 dc         1 CLA      0.037000
    130 H41        83.0378   51.5112   34.4645 dc         1 CLA      0.037000
    131 H3A        81.1666   59.9579   35.3777 dc         1 CLA      0.041100
    132 H2A        79.8354   57.4066   34.5664 dc         1 CLA      0.083100
    133 H2         82.1570   54.9709   34.8630 da         1 CLA      0.180900
    134 H18        84.7902   62.0975   45.5641 dc         1 CLA     -0.003900
    135 H13        84.8681   59.7059   41.2216 dc         1 CLA      0.019700
    136 H12        81.3021   55.0012   32.0887 dc         1 CLA      0.120400
    137 H11        82.9522   55.4397   31.8750 dc         1 CLA      0.120400
    138 C1         68.5852   61.4665   49.0452 Z1         2 LUT      0.509236
    139 C2         67.1010   61.4873   49.4326 Z2         2 LUT     -0.434695
    140 C3         66.5731   62.8755   49.8891 Z3         2 LUT      0.437453
    141 O3         66.5201   62.9530   51.3163 S1         2 LUT     -0.547129
    142 C4         67.4218   64.0490   49.3064 Z4         2 LUT     -0.468603
    143 C5         68.1459   63.6501   48.0161 Z5         2 LUT      0.279246
    144 C6         68.8590   62.4753   47.9599 Z6         2 LUT     -0.305473
    145 C7         69.3456   62.0370   46.6769 Z7         2 LUT      0.069402
    146 C8         70.2089   62.8849   45.9618 Z8         2 LUT     -0.191631
    147 C9         70.8033   62.6482   44.6269 Z9         2 LUT      0.196698
    148 C10        71.6955   63.4549   44.0860 Y1         2 LUT     -0.208611
    149 C11        72.3446   63.4183   42.8321 Y2         2 LUT      0.030784
    150 C12        73.5077   64.0707   42.6159 Y3         2 LUT     -0.220316
    151 C13        74.4094   63.9645   41.4460 Y4         2 LUT      0.215937
    152 C14        75.6468   64.5556   41.5112 Y5         2 LUT     -0.185793
    153 C15        76.6043   64.5264   40.4553 Y6         2 LUT     -0.057835
    154 C16        68.7451   60.0671   48.4547 Y7         2 LUT     -0.405615
    155 C17        69.4572   61.6337   50.3499 Y7         2 LUT     -0.405615
    156 C18        67.5838   64.5360   46.8871 Y9         2 LUT     -0.369639
    157 C19        70.2337   61.4902   43.7917 W1         2 LUT     -0.333362
    158 C20        73.9401   63.3439   40.1416 W2         2 LUT     -0.323439
    159 C21        87.8973   65.8681   33.9127 Z1         2 LUT      0.406104
    160 C22        88.5692   65.5050   32.5742 Z2         2 LUT     -0.404965
    161 C23        88.5928   66.7282   31.7004 Z3         2 LUT      0.391255
    162 O23        89.4212   66.5093   30.6277 S1         2 LUT     -0.528210
    163 C24        87.2961   67.3873   31.5418 W6         2 LUT     -0.258361
    164 C25        86.2328   67.2969   32.3740 Z5         2 LUT      0.133546
    165 C26        86.4075   66.4055   33.6569 W8         2 LUT     -0.147008
    166 C27        85.8181   67.0213   34.9254 Z7         2 LUT      0.023843
    167 C28        84.5970   66.7897   35.4488 Z8         2 LUT     -0.216987
    168 C29        83.9149   67.3650   36.6168 Z9         2 LUT      0.206524
    169 C30        82.6987   66.8202   36.9835 Y1         2 LUT     -0.215556
    170 C31        81.8560   66.9495   38.1570 Y2         2 LUT      0.025142
    171 C32        80.7740   66.1874   38.4314 Y3         2 LUT     -0.212209
    172 C33        79.8948   66.0876   39.5878 Y4         2 LUT      0.240937
    173 C34        78.6900   65.3480   39.4877 Y5         2 LUT     -0.218862
    174 C35        77.7552   65.2806   40.5597 Y6         2 LUT     -0.023547
    175 C36        88.8128   66.7923   34.7029 Y7         2 LUT     -0.393485
    176 C37        88.0370   64.6680   34.7775 Y7         2 LUT     -0.393485
    177 C38        84.8508   67.9832   32.0770 Y9         2 LUT     -0.387526
    178 C39        84.5477   68.4866   37.4563 W1         2 LUT     -0.322618
    179 C40        80.3455   66.7816   40.8820 W2         2 LUT     -0.358472
    180 H403       80.9820   66.0441   41.3992 R7         2 LUT      0.097720
    181 H402       80.9769   67.6487   40.7056 R7         2 LUT      0.097720
    182 H401       79.5622   67.1266   41.5496 R7         2 LUT      0.097720
    183 H393       85.2645   69.0599   36.9138 R4         2 LUT      0.082505
    184 H392       83.8586   69.2182   37.8762 R4         2 LUT      0.082505
    185 H391       85.1133   68.1315   38.3097 R4         2 LUT      0.082505
    186 H383       84.1187   67.1655   32.1421 R1         2 LUT      0.104030
    187 H382       84.5312   68.7490   32.7648 R1         2 LUT      0.104030
    188 H381       84.7418   68.4436   31.1015 R1         2 LUT      0.104030
    189 H373       87.7150   63.7307   34.3125 T4         2 LUT      0.089537
    190 H372       89.0643   64.5311   35.1212 T4         2 LUT      0.089537
    191 H371       87.4107   64.8455   35.5889 T4         2 LUT      0.089537
    192 H363       88.7528   67.8342   34.4190 T4         2 LUT      0.089537
    193 H362       88.7190   66.7242   35.7831 T4         2 LUT      0.089537
    194 H361       89.9209   66.6733   34.4796 T4         2 LUT      0.089537
    195 H222       89.5874   65.0184   32.6433 U2         2 LUT      0.127376
    196 H221       87.8598   64.8164   32.1302 U2         2 LUT      0.127376
    197 H203       72.9556   62.9005   40.2596 R7         2 LUT      0.087068
    198 H202       73.8053   64.1411   39.4385 R7         2 LUT      0.087068
    199 H201       74.6466   62.6835   39.6335 R7         2 LUT      0.087068
    200 H193       69.1767   61.3298   44.0935 R4         2 LUT      0.089716
    201 H192       70.1061   61.7354   42.7671 R4         2 LUT      0.089716
    202 H191       70.9049   60.5975   43.7310 R4         2 LUT      0.089716
    203 H183       67.9155   64.1063   45.8718 R1         2 LUT      0.094572
    204 H182       66.4731   64.6468   46.8410 R1         2 LUT      0.094572
    205 H181       68.1078   65.5141   46.8655 R1         2 LUT      0.094572
    206 H173       69.1799   60.9603   51.2205 T4         2 LUT      0.093752
    207 H172       70.5197   61.3406   50.1410 T4         2 LUT      0.093752
    208 H171       69.5131   62.6293   50.7295 T4         2 LUT      0.093752
    209 H163       68.0679   59.8591   47.5679 T4         2 LUT      0.093752
    210 H162       69.7632   59.9388   48.1911 T4         2 LUT      0.093752
    211 H161       68.6064   59.2108   49.0999 T4         2 LUT      0.093752
    212 HO3        65.8447   62.3641   51.7501 Q1         2 LUT      0.300121
    213 H8         70.5782   63.8520   46.4329 U7         2 LUT      0.080784
    214 H7         68.8739   61.2450   46.0974 U6         2 LUT      0.042190
    215 H42        66.8693   64.9899   49.1742 U5         2 LUT      0.145166
    216 H41        68.0756   64.3191   50.1247 U5         2 LUT      0.145166
    217 H35        77.9675   65.9631   41.4351 T3         2 LUT      0.077919
    218 H34        78.4410   64.8815   38.4990 T2         2 LUT      0.073626
    219 H32        80.4351   65.5009   37.5585 T1         2 LUT      0.092510
    220 H31        82.0465   67.7061   38.9430 U9         2 LUT      0.070048
    221 H30        82.3463   65.9387   36.3248 U8         2 LUT      0.085442
    222 H3         65.5490   62.8986   49.4934 U3         2 LUT     -0.031596
    223 H28        84.0091   66.0881   34.7988 U7         2 LUT      0.084728
    224 H27        86.4008   67.7309   35.4784 U6         2 LUT      0.087291
    225 H26        85.8269   65.5439   33.1832 Q6         2 LUT      0.075325
    226 H24        87.1911   68.0749   30.6871 Q5         2 LUT      0.094482
    227 H23        89.1877   67.4934   32.2596 U3         2 LUT     -0.024869
    228 H22        66.6844   61.1813   48.4998 U2         2 LUT      0.127376
    229 H21        66.8678   60.6620   50.1378 U2         2 LUT      0.127376
    230 H15        76.5388   64.0219   39.5357 T3         2 LUT      0.093200
    231 H14        76.0047   65.0257   42.4178 T2         2 LUT      0.068865
    232 H12        73.9795   64.5536   43.4380 T1         2 LUT      0.095507
    233 H11        72.0269   62.7011   42.0306 U9         2 LUT      0.068930
    234 H10        72.0333   64.2834   44.7102 U8         2 LUT      0.083911
    235 H1         89.0459   65.8901   29.9771 Q1         2 LUT      0.297311
@<TRIPOS>BOND
    1     6     1 1
    2     7     2 1
    3     8     3 1
    4     9     4 1
    5    11     4 1
    6    12     6 1
    7    13     9 1
    8    16     9 1
    9    25     5 1
   10    25    16 1
   11    26    10 1
   12    26    17 1
   13    27    18 1
   14    28    14 1
   15    28    19 1
   16    29    12 1
   17    30    13 1
   18    31    24 1
   19    32     1 1
   20    32    25 1
   21    33    21 1
   22    33    26 1
   23    34    22 1
   24    34    27 1
   25    35    23 1
   26    35    28 1
   27    36    12 1
   28    36    24 1
   29    37    13 1
   30    37    15 1
   31    38    31 1
   32    39    20 1
   33    39    32 1
   34    40     2 1
   35    40    33 1
   36    41     3 1
   37    41    34 1
   38    42     4 1
   39    42    35 1
   40    43    38 1
   41    44     5 1
   42    44    17 1
   43    44    39 1
   44    45    10 1
   45    45    18 1
   46    45    40 1
   47    46    19 1
   48    46    41 1
   49    47    14 1
   50    47    16 1
   51    47    42 1
   52    48    38 1
   53    49    48 1
   54    50    49 1
   55    51    50 1
   56    52    51 1
   57    53    51 1
   58    54    53 1
   59    55    54 1
   60    56    55 1
   61    57    56 1
   62    58    56 1
   63    59    58 1
   64    60    59 1
   65    61    60 1
   66    62    61 1
   67    63    61 1
   68    64    27 1
   69    64    46 1
   70    65     5 1
   71    65    10 1
   72    65    64 1
   73    65    14 1
   74    66    23 1
   75    67    23 1
   76    68    23 1
   77    69    22 1
   78    70    22 1
   79    71    22 1
   80    72    21 1
   81    73    21 1
   82    74    21 1
   83    75    20 1
   84    76    20 1
   85    77    20 1
   86    78    15 1
   87    79    15 1
   88    80    15 1
   89    81     8 1
   90    82     8 1
   91    83     8 1
   92    84     7 1
   93    85     7 1
   94    86     6 1
   95    87     6 1
   96    88     3 1
   97    89     3 1
   98    90     1 1
   99    91     1 1
  100    92    63 1
  101    93    63 1
  102    94    63 1
  103    95    62 1
  104    96    62 1
  105    97    62 1
  106    98    60 1
  107    99    60 1
  108   100    59 1
  109   101    59 1
  110   102    58 1
  111   103    58 1
  112   104    57 1
  113   105    57 1
  114   106    57 1
  115   107    55 1
  116   108    55 1
  117   109    54 1
  118   110    54 1
  119   111    53 1
  120   112    53 1
  121   113    19 1
  122   114    18 1
  123   115    17 1
  124   116     9 1
  125   117     2 1
  126   118    52 1
  127   119    52 1
  128   120    52 1
  129   121    51 1
  130   122    50 1
  131   123    50 1
  132   124    49 1
  133   125    49 1
  134   126    48 1
  135   127    48 1
  136   128    43 1
  137   129    43 1
  138   130    43 1
  139   131    39 1
  140   132    32 1
  141   133    31 1
  142   134    61 1
  143   135    56 1
  144   136    24 1
  145   137    24 1
  146   139   138 1
  147   140   139 1
  148   141   140 1
  149   142   140 1
  150   143   142 1
  151   144   138 1
  152   144   143 1
  153   145   144 1
  154   146   145 1
  155   147   146 1
  156   148   147 1
  157   149   148 1
  158   150   149 1
  159   151   150 1
  160   152   151 1
  161   153   152 1
  162   154   138 1
  163   155   138 1
  164   156   143 1
  165   157   147 1
  166   158   151 1
  167   160   159 1
  168   161   160 1
  169   162   161 1
  170   163   161 1
  171   164   163 1
  172   165   159 1
  173   165   164 1
  174   166   165 1
  175   167   166 1
  176   168   167 1
  177   169   168 1
  178   170   169 1
  179   171   170 1
  180   172   171 1
  181   173   172 1
  182   174   153 1
  183   174   173 1
  184   175   159 1
  185   176   159 1
  186   177   164 1
  187   178   168 1
  188   179   172 1
  189   180   179 1
  190   181   179 1
  191   182   179 1
  192   183   178 1
  193   184   178 1
  194   185   178 1
  195   186   177 1
  196   187   177 1
  197   188   177 1
  198   189   176 1
  199   190   176 1
  200   191   176 1
  201   192   175 1
  202   193   175 1
  203   194   175 1
  204   195   160 1
  205   196   160 1
  206   197   158 1
  207   198   158 1
  208   199   158 1
  209   200   157 1
  210   201   157 1
  211   202   157 1
  212   203   156 1
  213   204   156 1
  214   205   156 1
  215   206   155 1
  216   207   155 1
  217   208   155 1
  218   209   154 1
  219   210   154 1
  220   211   154 1
  221   212   141 1
  222   213   146 1
  223   214   145 1
  224   215   142 1
  225   216   142 1
  226   217   174 1
  227   218   173 1
  228   219   171 1
  229   220   170 1
  230   221   169 1
  231   222   140 1
  232   223   167 1
  233   224   166 1
  234   225   165 1
  235   226   163 1
  236   227   161 1
  237   228   139 1
  238   229   139 1
  239   230   153 1
  240   231   152 1
  241   232   150 1
  242   233   149 1
  243   234   148 1
  244   235   162 1
  245   65    153 1
  246   65    174 1
@<TRIPOS>SUBSTRUCTURE
      1 CLA               1 ****               0 ****  **** 
      2 LUT             138 ****               0 ****  **** 
