@<TRIPOS>MOLECULE
Cpptraj generated mol2 file.
  235   246     2     0     0
SMALL
USER_CHARGES


@<TRIPOS>ATOM
      1 CAA        79.5320   58.9391   34.0009 a2         1 CLA     -0.055900
      2 CAB        78.9248   62.2705   42.8702 c8         1 CLA     -0.148500
      3 CAC        72.1973   57.8642   41.8597 a2         1 CLA     -0.012600
      4 CAD        75.5779   55.9981   34.7581 ck         1 CLA      0.398800
      5 NA         78.3997   59.1452   37.1919 ns         1 CLA     -0.225500
      6 CBA        80.7785   58.7963   33.1106 a2         1 CLA     -0.135000
      7 CBB        80.0897   62.4760   43.5869 c0         1 CLA     -0.395200
      8 CBC        72.1240   56.3559   41.7101 a3         1 CLA     -0.037700
      9 CBD        76.9603   56.5494   34.5647 a1         1 CLA     -0.053900
     10 NB         78.0351   60.4679   39.7488 nm         1 CLA     -0.295700
     11 OBD        75.1055   55.1785   33.9914 o2         1 CLA     -0.494600
     12 CGA        81.3400   57.4400   32.7754 c4         1 CLA      0.827000
     13 CGD        78.0006   55.5302   34.3531 c4         1 CLA      0.655300
     14 ND         75.6945   58.0564   37.6466 nm         1 CLA     -0.291600
     15 CED        79.0515   53.6059   35.3432 a3         1 CLA      0.005400
     16 CHA        77.2259   57.5030   35.7844 cs         1 CLA     -0.123800
     17 CHB        79.9820   60.5905   38.3150 aa         1 CLA     -0.291900
     18 CHC        76.6034   60.5438   41.7382 aa         1 CLA     -0.090400
     19 CHD        73.6544   57.9783   39.0606 aa         1 CLA     -0.052000
     20 CMA        81.8803   58.5626   36.9231 a3         1 CLA     -0.230700
     21 CMB        81.1956   62.5277   40.4400 a3         1 CLA     -0.180800
     22 CMC        74.1057   59.8099   43.6053 a3         1 CLA     -0.134000
     23 CMD        72.7261   56.1741   36.6194 a3         1 CLA     -0.141100
     24 C1         82.5387   55.5873   33.5185 a2         1 CLA      0.023000
     25 C1A        78.3954   58.2092   36.1333 ac         1 CLA     -0.015100
     26 C1B        79.2934   60.9109   39.4463 cr         1 CLA      0.054700
     27 C1C        75.4931   59.7926   41.4023 cn         1 CLA     -0.005600
     28 C1D        74.3979   57.6491   37.8776 ap         1 CLA     -0.047300
     29 O1A        81.1400   56.8717   31.6992 o2         1 CLA     -0.610800
     30 O1D        78.7550   55.5238   33.4168 o2         1 CLA     -0.558200
     31 C2         83.3946   55.0322   34.6158 c8         1 CLA     -0.325100
     32 C2A        79.7611   58.2606   35.3502 a1         1 CLA      0.098600
     33 C2B        79.7666   61.8151   40.4727 cb         1 CLA      0.088500
     34 C2C        74.3507   59.3272   42.2457 cb         1 CLA      0.053700
     35 C2D        74.0066   56.7846   36.7801 cb         1 CLA      0.058900
     36 O2A        82.0458   56.9184   33.8735 o1         1 CLA     -0.437200
     37 O2D        77.9806   54.5934   35.3748 o1         1 CLA     -0.357600
     38 C3         84.5573   54.3389   34.5086 c5         1 CLA      0.031200
     39 C3A        80.6154   59.2200   36.3209 a1         1 CLA      0.166800
     40 C3B        78.8128   61.7461   41.5020 cb         1 CLA      0.035000
     41 C3C        73.5044   58.4839   41.4662 cb         1 CLA     -0.089900
     42 C3D        75.0512   56.6872   35.9612 cb         1 CLA     -0.035900
     43 C4         84.6648   52.8415   34.7170 a3         1 CLA     -0.053300
     44 C4A        79.5862   59.6933   37.3212 ac         1 CLA      0.001800
     45 C4B        77.7516   60.9366   41.0320 cn         1 CLA     -0.020900
     46 C4C        74.1489   58.5395   40.1821 cr         1 CLA     -0.044400
     47 C4D        76.0511   57.5325   36.5131 c6         1 CLA     -0.046000
     48 C5         85.8899   54.9488   34.0980 a2         1 CLA     -0.070400
     49 C6         86.3170   56.2257   34.8918 a2         1 CLA      0.043900
     50 C7         86.2127   56.0126   36.4600 a2         1 CLA     -0.150000
     51 C8         87.5684   55.7161   37.1755 a1         1 CLA      0.064200
     52 C9         88.2157   54.5258   36.6560 a3         1 CLA     -0.259300
     53 C10        87.4398   55.6030   38.7717 a2         1 CLA     -0.071900
     54 C11        86.8574   56.8852   39.5471 a2         1 CLA      0.014500
     55 C12        86.9803   56.8095   41.0916 a2         1 CLA     -0.112100
     56 C13        86.7440   58.0845   41.8461 a1         1 CLA      0.089200
     57 C14        88.0608   59.0072   41.7998 a3         1 CLA     -0.239100
     58 C15        86.2476   57.6447   43.2143 a2         1 CLA     -0.102200
     59 C16        86.0071   58.7496   44.2285 a2         1 CLA      0.023900
     60 C17        85.9867   58.2753   45.7134 a2         1 CLA     -0.105700
     61 C18        85.7475   59.4093   46.7993 a1         1 CLA      0.206800
     62 C19        84.3131   60.0654   46.5834 a3         1 CLA     -0.280100
     63 C20        85.7682   58.8251   48.2345 a3         1 CLA     -0.280100
     64 NC         75.3597   59.2205   40.1728 nx         1 CLA     -0.309200
     65 MG         76.8140   59.4083   38.6494 mg         1 CLA      0.895000
     66 HMD3       72.8160   55.4397   35.8897 dc         1 CLA      0.064300
     67 HMD2       72.3446   55.6801   37.4991 dc         1 CLA      0.064300
     68 HMD1       71.9773   56.9245   36.3384 dc         1 CLA      0.064300
     69 HMC3       73.8210   58.9084   44.1772 dc         1 CLA      0.052100
     70 HMC2       75.0122   60.2920   44.0751 dc         1 CLA      0.052100
     71 HMC1       73.2988   60.4964   43.6256 dc         1 CLA      0.052100
     72 HMB3       81.2617   63.0527   39.5133 dc         1 CLA      0.063600
     73 HMB2       81.2748   63.1367   41.2686 dc         1 CLA      0.063600
     74 HMB1       82.0758   61.9287   40.4390 dc         1 CLA      0.063600
     75 HMA3       82.4299   58.1206   36.0759 dc         1 CLA      0.058300
     76 HMA2       82.5153   59.3369   37.4403 dc         1 CLA      0.058300
     77 HMA1       81.6107   57.9081   37.7788 dc         1 CLA      0.058300
     78 HED3       79.8894   54.1724   35.6804 dc         1 CLA      0.079300
     79 HED2       78.7637   52.8256   36.0141 dc         1 CLA      0.079300
     80 HED1       79.1963   53.1738   34.3242 dc         1 CLA      0.079300
     81 HBC3       72.7308   55.8089   42.4476 dc         1 CLA      0.016300
     82 HBC2       71.1322   55.9646   41.9297 dc         1 CLA      0.016300
     83 HBC1       72.4145   56.1394   40.6737 dc         1 CLA      0.016300
     84 HBB2       80.0043   62.9836   44.5814 da         1 CLA      0.183000
     85 HBB1       81.1012   62.2671   43.2055 da         1 CLA      0.183000
     86 HBA2       80.3762   59.1890   32.1439 dc         1 CLA      0.029400
     87 HBA1       81.5568   59.4926   33.3984 dc         1 CLA      0.029400
     88 HAC2       71.9440   58.1171   42.9111 dc         1 CLA      0.029300
     89 HAC1       71.4215   58.3266   41.2967 dc         1 CLA      0.029300
     90 HAA2       78.7788   58.4585   33.4914 dc         1 CLA      0.028700
     91 HAA1       79.2752   59.9760   34.0503 dc         1 CLA      0.028700
     92 H203       86.7123   58.5442   48.5984 dc         1 CLA      0.065600
     93 H202       85.4199   59.6414   48.8876 dc         1 CLA      0.065600
     94 H201       85.0511   58.0348   48.2990 dc         1 CLA      0.065600
     95 H193       83.5801   59.2083   46.7993 dc         1 CLA      0.065600
     96 H192       84.0772   60.8761   47.2961 dc         1 CLA      0.065600
     97 H191       84.0006   60.3205   45.5837 dc         1 CLA      0.065600
     98 H172       85.1833   57.5504   45.8406 dc         1 CLA      0.027600
     99 H171       86.8619   57.7353   46.0642 dc         1 CLA      0.027600
    100 H162       86.7893   59.4811   44.2142 dc         1 CLA      0.002900
    101 H161       85.0827   59.2952   43.9803 dc         1 CLA      0.002900
    102 H152       85.2941   57.1443   43.1463 dc         1 CLA      0.029100
    103 H151       86.9694   57.0136   43.7299 dc         1 CLA      0.029100
    104 H143       87.9168   60.0062   42.2228 dc         1 CLA      0.063600
    105 H142       88.7700   58.5423   42.5147 dc         1 CLA      0.063600
    106 H141       88.5500   59.1487   40.8504 dc         1 CLA      0.063600
    107 H122       86.2506   55.9941   41.2856 dc         1 CLA      0.032500
    108 H121       88.0007   56.4351   41.2105 dc         1 CLA      0.032500
    109 H112       87.5535   57.5947   39.2109 dc         1 CLA      0.006600
    110 H111       85.8712   57.2007   39.0978 dc         1 CLA      0.006600
    111 H102       86.9501   54.6465   38.8834 dc         1 CLA      0.024100
    112 H101       88.5385   55.5354   39.0866 dc         1 CLA      0.024100
    113 HHD        72.5929   57.6086   39.1349 da         1 CLA      0.174300
    114 HHC        76.5374   60.9018   42.7527 da         1 CLA      0.136800
    115 HHB        80.9724   60.9705   38.3454 da         1 CLA      0.138300
    116 HBD        76.8407   57.1669   33.6493 dc         1 CLA      0.107700
    117 HAB        77.9336   62.5496   43.3370 da         1 CLA      0.155200
    118 H93        89.0675   54.2571   37.2624 dc         1 CLA      0.069500
    119 H92        87.4886   53.6515   36.7456 dc         1 CLA      0.069500
    120 H91        88.6588   54.6700   35.6663 dc         1 CLA      0.069500
    121 H8         88.1746   56.6029   36.8949 dc         1 CLA      0.029300
    122 H72        85.7548   56.9374   36.7933 dc         1 CLA      0.044400
    123 H71        85.4899   55.2057   36.7066 dc         1 CLA      0.044400
    124 H62        87.3150   56.6063   34.6311 dc         1 CLA      0.015600
    125 H61        85.7080   57.0897   34.4967 dc         1 CLA      0.015600
    126 H52        86.6781   54.1319   34.1814 dc         1 CLA      0.033200
    127 H51        85.8437   55.2441   33.0952 dc         1 CLA      0.033200
    128 H43        85.4141   52.5074   35.4339 dc         1 CLA      0.037000
    129 H42        83.6879   52.5043   35.0707 dc         1 CLA      0.037000
    130 H41        84.9200   52.3709   33.7178 dc         1 CLA      0.037000
    131 H3A        80.9142   60.1782   35.9546 dc         1 CLA      0.041100
    132 H2A        80.1639   57.2405   35.2799 dc         1 CLA      0.083100
    133 H2         83.4685   55.6275   35.5246 da         1 CLA      0.180900
    134 H18        86.4984   60.1379   46.7960 dc         1 CLA     -0.003900
    135 H13        85.8927   58.5945   41.3106 dc         1 CLA      0.019700
    136 H12        81.6649   54.9234   33.5343 dc         1 CLA      0.120400
    137 H11        83.0679   55.5975   32.6690 dc         1 CLA      0.120400
    138 C1         68.9055   61.7143   49.5298 Z1         2 LUT      0.509236
    139 C2         67.4522   61.6000   49.9439 Z2         2 LUT     -0.434695
    140 C3         66.6513   62.8938   50.2655 Z3         2 LUT      0.437453
    141 O3         66.0639   63.1253   51.5795 S1         2 LUT     -0.547129
    142 C4         67.2430   64.0937   49.4940 Z4         2 LUT     -0.468603
    143 C5         68.0970   63.7787   48.3137 Z5         2 LUT      0.279246
    144 C6         68.9657   62.6950   48.3595 Z6         2 LUT     -0.305473
    145 C7         69.6673   62.1804   47.1338 Z7         2 LUT      0.069402
    146 C8         70.6211   62.7686   46.3580 Z8         2 LUT     -0.191631
    147 C9         71.1602   62.4590   45.0294 Z9         2 LUT      0.196698
    148 C10        72.1664   63.3458   44.6543 Y1         2 LUT     -0.208611
    149 C11        72.9407   63.3717   43.3646 Y2         2 LUT      0.030784
    150 C12        74.1020   64.0698   43.1594 Y3         2 LUT     -0.220316
    151 C13        74.9707   63.9938   42.0230 Y4         2 LUT      0.215937
    152 C14        76.2214   64.4997   42.1007 Y5         2 LUT     -0.185793
    153 C15        77.2962   64.5302   41.0816 Y6         2 LUT     -0.057835
    154 C16        69.4769   60.3058   49.2801 Y7         2 LUT     -0.405615
    155 C17        69.6091   62.3247   50.8550 Y7         2 LUT     -0.405615
    156 C18        67.6369   64.4342   47.0463 Y9         2 LUT     -0.369639
    157 C19        70.5082   61.4110   44.2563 W1         2 LUT     -0.333362
    158 C20        74.5851   63.3192   40.7507 W2         2 LUT     -0.323439
    159 C21        88.2545   65.5461   34.4435 Z1         2 LUT      0.406104
    160 C22        88.9205   65.1456   33.0801 Z2         2 LUT     -0.404965
    161 C23        89.1903   66.1740   32.0401 Z3         2 LUT      0.391255
    162 O23        89.9130   65.5024   30.9892 S1         2 LUT     -0.528210
    163 C24        87.8210   66.9018   31.8724 W6         2 LUT     -0.258361
    164 C25        86.7795   66.8295   32.6886 Z5         2 LUT      0.133546
    165 C26        86.8369   66.1053   34.0701 W8         2 LUT     -0.147008
    166 C27        86.2127   66.9041   35.2649 Z7         2 LUT      0.023843
    167 C28        85.1162   66.4983   35.9575 Z8         2 LUT     -0.216987
    168 C29        84.5735   67.0590   37.1865 Z9         2 LUT      0.206524
    169 C30        83.4276   66.4219   37.5505 Y1         2 LUT     -0.215556
    170 C31        82.7422   66.5704   38.8173 Y2         2 LUT      0.025142
    171 C32        81.5420   65.9156   39.0174 Y3         2 LUT     -0.212209
    172 C33        80.7031   65.9912   40.2060 Y4         2 LUT      0.240937
    173 C34        79.5858   65.1954   40.3657 Y5         2 LUT     -0.218862
    174 C35        78.5305   65.1126   41.4312 Y6         2 LUT     -0.023547
    175 C36        89.1651   66.5863   35.1755 Y7         2 LUT     -0.393485
    176 C37        88.3254   64.2736   35.3578 Y7         2 LUT     -0.393485
    177 C38        85.5067   67.6819   32.3903 Y9         2 LUT     -0.387526
    178 C39        85.2924   68.0913   38.0005 W1         2 LUT     -0.322618
    179 C40        80.8776   67.1835   41.1067 W2         2 LUT     -0.358472
    180 H403       81.8912   67.2240   41.5640 R7         2 LUT      0.097720
    181 H402       80.7893   68.0574   40.5553 R7         2 LUT      0.097720
    182 H401       80.0419   67.1759   41.8521 R7         2 LUT      0.097720
    183 H393       84.6652   68.6458   38.7006 R4         2 LUT      0.082505
    184 H392       86.1836   67.8142   38.5252 R4         2 LUT      0.082505
    185 H391       85.5844   68.8695   37.3426 R4         2 LUT      0.082505
    186 H383       84.7942   67.5565   33.1683 R1         2 LUT      0.104030
    187 H382       85.6647   68.7586   32.3589 R1         2 LUT      0.104030
    188 H381       84.9619   67.5781   31.5084 R1         2 LUT      0.104030
    189 H373       87.7154   63.4739   35.0542 T4         2 LUT      0.089537
    190 H372       89.3972   63.9700   35.3830 T4         2 LUT      0.089537
    191 H371       88.0147   64.5423   36.3538 T4         2 LUT      0.089537
    192 H363       89.0322   66.8528   36.2564 T4         2 LUT      0.089537
    193 H362       90.1906   66.3467   35.0724 T4         2 LUT      0.089537
    194 H361       89.1073   67.4930   34.6001 T4         2 LUT      0.089537
    195 H222       89.7818   64.4721   33.2063 U2         2 LUT      0.127376
    196 H221       88.3134   64.5308   32.3410 U2         2 LUT      0.127376
    197 H203       74.4653   62.2727   41.0187 R7         2 LUT      0.087068
    198 H202       73.6435   63.6578   40.3785 R7         2 LUT      0.087068
    199 H201       75.2450   63.2807   39.9358 R7         2 LUT      0.087068
    200 H193       70.4785   60.5308   44.8941 R4         2 LUT      0.089716
    201 H192       69.5746   61.7449   43.8833 R4         2 LUT      0.089716
    202 H191       71.1230   61.0153   43.3843 R4         2 LUT      0.089716
    203 H183       67.9773   65.4590   47.0386 R1         2 LUT      0.094572
    204 H182       67.9649   64.0143   46.1045 R1         2 LUT      0.094572
    205 H181       66.5461   64.4192   47.0391 R1         2 LUT      0.094572
    206 H173       69.6477   61.5646   51.6595 T4         2 LUT      0.093752
    207 H172       70.6374   62.4286   50.6697 T4         2 LUT      0.093752
    208 H171       69.1594   63.3140   51.1370 T4         2 LUT      0.093752
    209 H163       69.0979   59.8781   48.3103 T4         2 LUT      0.093752
    210 H162       70.5333   60.4478   49.2038 T4         2 LUT      0.093752
    211 H161       69.2606   59.5144   49.9914 T4         2 LUT      0.093752
    212 HO3        66.6461   62.9047   52.3353 Q1         2 LUT      0.300121
    213 H8         70.9633   63.7514   46.7603 U7         2 LUT      0.080784
    214 H7         69.1433   61.3860   46.7166 U6         2 LUT      0.042190
    215 H42        66.4955   64.9122   49.5034 U5         2 LUT      0.145166
    216 H41        67.7896   64.7118   50.1592 U5         2 LUT      0.145166
    217 H35        78.5682   65.6783   42.3686 T3         2 LUT      0.077919
    218 H34        79.3648   64.6467   39.4737 T2         2 LUT      0.073626
    219 H32        81.1312   65.2957   38.1708 T1         2 LUT      0.092510
    220 H31        83.1885   67.1606   39.6534 U9         2 LUT      0.070048
    221 H30        83.0429   65.6050   37.0040 U8         2 LUT      0.085442
    222 H3         65.7036   62.8435   49.7571 U3         2 LUT     -0.031596
    223 H28        84.5263   65.7000   35.6027 U7         2 LUT      0.084728
    224 H27        86.7189   67.8971   35.5598 U6         2 LUT      0.087291
    225 H26        86.2028   65.2122   33.9275 Q6         2 LUT      0.075325
    226 H24        87.7700   67.5395   30.9454 Q5         2 LUT      0.094482
    227 H23        90.0352   66.7269   32.4668 U3         2 LUT     -0.024869
    228 H22        66.8629   61.0842   49.2760 U2         2 LUT      0.127376
    229 H21        67.3781   61.0184   50.8645 U2         2 LUT      0.127376
    230 H15        77.1872   64.0003   40.1158 T3         2 LUT      0.093200
    231 H14        76.4615   64.8736   43.1432 T2         2 LUT      0.068865
    232 H12        74.4162   64.6920   43.9840 T1         2 LUT      0.095507
    233 H11        72.5621   62.7132   42.6380 U9         2 LUT      0.068930
    234 H10        72.5443   64.0279   45.4783 U8         2 LUT      0.083911
    235 H1         89.2861   65.3026   30.2342 Q1         2 LUT      0.297311
@<TRIPOS>BOND
    1     6     1 1
    2     7     2 1
    3     8     3 1
    4     9     4 1
    5    11     4 1
    6    12     6 1
    7    13     9 1
    8    16     9 1
    9    25     5 1
   10    25    16 1
   11    26    10 1
   12    26    17 1
   13    27    18 1
   14    28    14 1
   15    28    19 1
   16    29    12 1
   17    30    13 1
   18    31    24 1
   19    32     1 1
   20    32    25 1
   21    33    21 1
   22    33    26 1
   23    34    22 1
   24    34    27 1
   25    35    23 1
   26    35    28 1
   27    36    12 1
   28    36    24 1
   29    37    13 1
   30    37    15 1
   31    38    31 1
   32    39    20 1
   33    39    32 1
   34    40     2 1
   35    40    33 1
   36    41     3 1
   37    41    34 1
   38    42     4 1
   39    42    35 1
   40    43    38 1
   41    44     5 1
   42    44    17 1
   43    44    39 1
   44    45    10 1
   45    45    18 1
   46    45    40 1
   47    46    19 1
   48    46    41 1
   49    47    14 1
   50    47    16 1
   51    47    42 1
   52    48    38 1
   53    49    48 1
   54    50    49 1
   55    51    50 1
   56    52    51 1
   57    53    51 1
   58    54    53 1
   59    55    54 1
   60    56    55 1
   61    57    56 1
   62    58    56 1
   63    59    58 1
   64    60    59 1
   65    61    60 1
   66    62    61 1
   67    63    61 1
   68    64    27 1
   69    64    46 1
   70    65     5 1
   71    65    10 1
   72    65    64 1
   73    65    14 1
   74    66    23 1
   75    67    23 1
   76    68    23 1
   77    69    22 1
   78    70    22 1
   79    71    22 1
   80    72    21 1
   81    73    21 1
   82    74    21 1
   83    75    20 1
   84    76    20 1
   85    77    20 1
   86    78    15 1
   87    79    15 1
   88    80    15 1
   89    81     8 1
   90    82     8 1
   91    83     8 1
   92    84     7 1
   93    85     7 1
   94    86     6 1
   95    87     6 1
   96    88     3 1
   97    89     3 1
   98    90     1 1
   99    91     1 1
  100    92    63 1
  101    93    63 1
  102    94    63 1
  103    95    62 1
  104    96    62 1
  105    97    62 1
  106    98    60 1
  107    99    60 1
  108   100    59 1
  109   101    59 1
  110   102    58 1
  111   103    58 1
  112   104    57 1
  113   105    57 1
  114   106    57 1
  115   107    55 1
  116   108    55 1
  117   109    54 1
  118   110    54 1
  119   111    53 1
  120   112    53 1
  121   113    19 1
  122   114    18 1
  123   115    17 1
  124   116     9 1
  125   117     2 1
  126   118    52 1
  127   119    52 1
  128   120    52 1
  129   121    51 1
  130   122    50 1
  131   123    50 1
  132   124    49 1
  133   125    49 1
  134   126    48 1
  135   127    48 1
  136   128    43 1
  137   129    43 1
  138   130    43 1
  139   131    39 1
  140   132    32 1
  141   133    31 1
  142   134    61 1
  143   135    56 1
  144   136    24 1
  145   137    24 1
  146   139   138 1
  147   140   139 1
  148   141   140 1
  149   142   140 1
  150   143   142 1
  151   144   138 1
  152   144   143 1
  153   145   144 1
  154   146   145 1
  155   147   146 1
  156   148   147 1
  157   149   148 1
  158   150   149 1
  159   151   150 1
  160   152   151 1
  161   153   152 1
  162   154   138 1
  163   155   138 1
  164   156   143 1
  165   157   147 1
  166   158   151 1
  167   160   159 1
  168   161   160 1
  169   162   161 1
  170   163   161 1
  171   164   163 1
  172   165   159 1
  173   165   164 1
  174   166   165 1
  175   167   166 1
  176   168   167 1
  177   169   168 1
  178   170   169 1
  179   171   170 1
  180   172   171 1
  181   173   172 1
  182   174   153 1
  183   174   173 1
  184   175   159 1
  185   176   159 1
  186   177   164 1
  187   178   168 1
  188   179   172 1
  189   180   179 1
  190   181   179 1
  191   182   179 1
  192   183   178 1
  193   184   178 1
  194   185   178 1
  195   186   177 1
  196   187   177 1
  197   188   177 1
  198   189   176 1
  199   190   176 1
  200   191   176 1
  201   192   175 1
  202   193   175 1
  203   194   175 1
  204   195   160 1
  205   196   160 1
  206   197   158 1
  207   198   158 1
  208   199   158 1
  209   200   157 1
  210   201   157 1
  211   202   157 1
  212   203   156 1
  213   204   156 1
  214   205   156 1
  215   206   155 1
  216   207   155 1
  217   208   155 1
  218   209   154 1
  219   210   154 1
  220   211   154 1
  221   212   141 1
  222   213   146 1
  223   214   145 1
  224   215   142 1
  225   216   142 1
  226   217   174 1
  227   218   173 1
  228   219   171 1
  229   220   170 1
  230   221   169 1
  231   222   140 1
  232   223   167 1
  233   224   166 1
  234   225   165 1
  235   226   163 1
  236   227   161 1
  237   228   139 1
  238   229   139 1
  239   230   153 1
  240   231   152 1
  241   232   150 1
  242   233   149 1
  243   234   148 1
  244   235   162 1
  245   65    153 1
  246   65    174 1
@<TRIPOS>SUBSTRUCTURE
      1 CLA               1 ****               0 ****  **** 
      2 LUT             138 ****               0 ****  **** 
