@<TRIPOS>MOLECULE
Cpptraj generated mol2 file.
  235   246     2     0     0
SMALL
USER_CHARGES


@<TRIPOS>ATOM
      1 CAA        79.8150   59.0564   33.9823 a2         1 CLA     -0.055900
      2 CAB        78.8008   61.6423   43.1689 c8         1 CLA     -0.148500
      3 CAC        72.2250   57.3740   41.9122 a2         1 CLA     -0.012600
      4 CAD        75.2202   56.7391   34.2921 ck         1 CLA      0.398800
      5 NA         78.3921   58.8610   37.2474 ns         1 CLA     -0.225500
      6 CBA        81.1750   58.8821   33.2656 a2         1 CLA     -0.135000
      7 CBB        79.8884   61.9425   43.9118 c0         1 CLA     -0.395200
      8 CBC        72.5689   55.9480   42.1492 a3         1 CLA     -0.037700
      9 CBD        76.6518   57.2466   34.1704 a1         1 CLA     -0.053900
     10 NB         77.9577   60.1535   39.9233 nm         1 CLA     -0.295700
     11 OBD        74.5072   56.2328   33.3958 o2         1 CLA     -0.494600
     12 CGA        81.6496   57.5613   32.6831 c4         1 CLA      0.827000
     13 CGD        77.5999   56.1336   33.7415 c4         1 CLA      0.655300
     14 ND         75.5815   58.0436   37.5962 nm         1 CLA     -0.291600
     15 CED        78.0211   53.8313   33.7138 a3         1 CLA      0.005400
     16 CHA        77.0427   57.8110   35.5423 cs         1 CLA     -0.123800
     17 CHB        79.9591   60.1656   38.4808 aa         1 CLA     -0.291900
     18 CHC        76.4683   60.1562   41.9186 aa         1 CLA     -0.090400
     19 CHD        73.6627   57.5854   39.0400 aa         1 CLA     -0.052000
     20 CMA        81.4096   57.5645   37.0904 a3         1 CLA     -0.230700
     21 CMB        81.1093   61.9057   40.9513 a3         1 CLA     -0.180800
     22 CMC        73.9806   59.4038   43.7297 a3         1 CLA     -0.134000
     23 CMD        72.4702   56.1551   36.4785 a3         1 CLA     -0.141100
     24 C1         81.9588   55.2905   33.4789 a2         1 CLA      0.023000
     25 C1A        78.2532   58.3417   36.0116 ac         1 CLA     -0.015100
     26 C1B        79.2211   60.5201   39.6381 cr         1 CLA      0.054700
     27 C1C        75.3916   59.3848   41.4828 cn         1 CLA     -0.005600
     28 C1D        74.3287   57.4979   37.8255 ap         1 CLA     -0.047300
     29 O1A        81.7323   57.2351   31.5162 o2         1 CLA     -0.610800
     30 O1D        78.6958   56.3006   33.2773 o2         1 CLA     -0.558200
     31 C2         82.8109   54.6727   34.5794 c8         1 CLA     -0.325100
     32 C2A        79.6721   58.3030   35.3163 a1         1 CLA      0.098600
     33 C2B        79.7683   61.2020   40.8107 cb         1 CLA      0.088500
     34 C2C        74.1374   59.0236   42.3028 cb         1 CLA      0.053700
     35 C2D        73.7746   56.8811   36.5751 cb         1 CLA      0.058900
     36 O2A        81.9410   56.7309   33.7703 o1         1 CLA     -0.437200
     37 O2D        77.1176   54.8695   34.1033 o1         1 CLA     -0.357600
     38 C3         84.0008   54.1654   34.2553 c5         1 CLA      0.031200
     39 C3A        80.6291   58.7955   36.4358 a1         1 CLA      0.166800
     40 C3B        78.8060   61.1466   41.8046 cb         1 CLA      0.035000
     41 C3C        73.4206   58.1735   41.5293 cb         1 CLA     -0.089900
     42 C3D        74.7990   57.0816   35.6236 cb         1 CLA     -0.035900
     43 C4         84.2323   52.6991   34.0967 a3         1 CLA     -0.053300
     44 C4A        79.6014   59.4233   37.4348 ac         1 CLA      0.001800
     45 C4B        77.6196   60.5669   41.2142 cn         1 CLA     -0.020900
     46 C4C        74.1078   58.0961   40.2442 cr         1 CLA     -0.044400
     47 C4D        75.9273   57.6272   36.3740 c6         1 CLA     -0.046000
     48 C5         85.2924   55.0219   34.4123 a2         1 CLA     -0.070400
     49 C6         85.3232   56.2808   35.2571 a2         1 CLA      0.043900
     50 C7         85.4594   56.0158   36.7543 a2         1 CLA     -0.150000
     51 C8         85.3491   57.2755   37.6565 a1         1 CLA      0.064200
     52 C9         86.6323   58.1849   37.4976 a3         1 CLA     -0.259300
     53 C10        85.0201   56.9250   39.1774 a2         1 CLA     -0.071900
     54 C11        84.5769   58.1456   40.0792 a2         1 CLA      0.014500
     55 C12        84.6794   57.7601   41.5420 a2         1 CLA     -0.112100
     56 C13        84.0328   58.6419   42.6391 a1         1 CLA      0.089200
     57 C14        84.3380   60.1208   42.5224 a3         1 CLA     -0.239100
     58 C15        84.2195   58.0449   44.1339 a2         1 CLA     -0.102200
     59 C16        83.3393   56.7673   44.2010 a2         1 CLA      0.023900
     60 C17        83.4456   56.0701   45.5319 a2         1 CLA     -0.105700
     61 C18        84.9418   55.8760   46.0906 a1         1 CLA      0.206800
     62 C19        84.8599   54.9111   47.3025 a3         1 CLA     -0.280100
     63 C20        85.7580   55.1188   45.0106 a3         1 CLA     -0.280100
     64 NC         75.2974   58.8518   40.2428 nx         1 CLA     -0.309200
     65 MG         76.7321   59.0075   38.6515 mg         1 CLA      0.895000
     66 HMD3       72.4577   55.5854   35.5266 dc         1 CLA      0.064300
     67 HMD2       72.3158   55.4609   37.3281 dc         1 CLA      0.064300
     68 HMD1       71.7055   56.9415   36.4255 dc         1 CLA      0.064300
     69 HMC3       73.7792   60.4551   43.5996 dc         1 CLA      0.052100
     70 HMC2       73.1078   58.9591   44.2609 dc         1 CLA      0.052100
     71 HMC1       74.9783   59.2084   44.2614 dc         1 CLA      0.052100
     72 HMB3       80.9937   62.8602   41.4747 dc         1 CLA      0.063600
     73 HMB2       81.9861   61.2519   41.2333 dc         1 CLA      0.063600
     74 HMB1       81.3485   62.2146   39.9526 dc         1 CLA      0.063600
     75 HMA3       81.9667   57.0393   36.3449 dc         1 CLA      0.058300
     76 HMA2       82.1672   57.8632   37.7966 dc         1 CLA      0.058300
     77 HMA1       80.6639   56.9620   37.6742 dc         1 CLA      0.058300
     78 HED3       78.8669   53.7331   34.3402 dc         1 CLA      0.079300
     79 HED2       77.3763   52.9260   33.8064 dc         1 CLA      0.079300
     80 HED1       78.3025   53.9023   32.6863 dc         1 CLA      0.079300
     81 HBC3       73.0639   55.4388   41.3343 dc         1 CLA      0.016300
     82 HBC2       73.1052   55.8204   43.0944 dc         1 CLA      0.016300
     83 HBC1       71.6560   55.2652   42.2161 dc         1 CLA      0.016300
     84 HBB2       79.9073   62.2689   44.9742 da         1 CLA      0.183000
     85 HBB1       80.8257   61.7944   43.4904 da         1 CLA      0.183000
     86 HBA2       81.2469   59.6659   32.5313 dc         1 CLA      0.029400
     87 HBA1       81.9159   59.1908   33.9638 dc         1 CLA      0.029400
     88 HAC2       71.8522   57.7124   42.8557 dc         1 CLA      0.029300
     89 HAC1       71.4820   57.3641   41.0854 dc         1 CLA      0.029300
     90 HAA2       79.0614   58.8058   33.1830 dc         1 CLA      0.028700
     91 HAA1       79.6325   60.1097   34.2627 dc         1 CLA      0.028700
     92 H203       86.7628   54.9799   45.3721 dc         1 CLA      0.065600
     93 H202       85.4529   54.1054   44.7223 dc         1 CLA      0.065600
     94 H201       85.8676   55.5026   43.9963 dc         1 CLA      0.065600
     95 H193       84.8272   53.8841   47.0228 dc         1 CLA      0.065600
     96 H192       85.8200   54.9278   47.8390 dc         1 CLA      0.065600
     97 H191       83.9886   55.2721   47.9519 dc         1 CLA      0.065600
     98 H172       82.8748   56.7681   46.1543 dc         1 CLA      0.027600
     99 H171       82.8691   55.1037   45.5216 dc         1 CLA      0.027600
    100 H162       82.3025   57.0171   44.1491 dc         1 CLA      0.002900
    101 H161       83.5208   56.0153   43.4888 dc         1 CLA      0.002900
    102 H152       85.3005   57.9921   44.3453 dc         1 CLA      0.029100
    103 H151       83.8671   58.7599   44.8904 dc         1 CLA      0.029100
    104 H143       85.4201   60.4584   42.6176 dc         1 CLA      0.063600
    105 H142       83.9408   60.5664   41.5870 dc         1 CLA      0.063600
    106 H141       83.7340   60.5186   43.3173 dc         1 CLA      0.063600
    107 H122       84.1823   56.7836   41.5756 dc         1 CLA      0.032500
    108 H121       85.7452   57.6813   41.8337 dc         1 CLA      0.032500
    109 H112       85.3044   58.9588   39.9556 dc         1 CLA      0.006600
    110 H111       83.5772   58.3516   39.7267 dc         1 CLA      0.006600
    111 H102       84.2626   56.1285   39.2540 dc         1 CLA      0.024100
    112 H101       85.9538   56.4719   39.6891 dc         1 CLA      0.024100
    113 HHD        72.6989   57.0945   39.1331 da         1 CLA      0.174300
    114 HHC        76.4436   60.6221   42.9039 da         1 CLA      0.136800
    115 HHB        81.0355   60.4208   38.5081 da         1 CLA      0.138300
    116 HBD        76.7158   57.9593   33.4101 dc         1 CLA      0.107700
    117 HAB        77.7386   61.8490   43.4641 da         1 CLA      0.155200
    118 H93        86.2278   59.1739   37.5878 dc         1 CLA      0.069500
    119 H92        87.3084   58.0738   38.3343 dc         1 CLA      0.069500
    120 H91        87.2691   58.0485   36.6199 dc         1 CLA      0.069500
    121 H8         84.4197   57.8104   37.4637 dc         1 CLA      0.029300
    122 H72        84.6916   55.3611   37.0859 dc         1 CLA      0.044400
    123 H71        86.3974   55.5640   37.0245 dc         1 CLA      0.044400
    124 H62        86.2439   56.8149   35.0707 dc         1 CLA      0.015600
    125 H61        84.4478   56.9262   35.0146 dc         1 CLA      0.015600
    126 H52        86.1287   54.3749   34.7909 dc         1 CLA      0.033200
    127 H51        85.5864   55.3570   33.4514 dc         1 CLA      0.033200
    128 H43        85.0198   52.3237   34.7873 dc         1 CLA      0.037000
    129 H42        83.3621   52.2116   34.4375 dc         1 CLA      0.037000
    130 H41        84.2201   52.4689   33.0048 dc         1 CLA      0.037000
    131 H3A        81.2660   59.6158   36.0352 dc         1 CLA      0.041100
    132 H2A        79.8441   57.2640   35.1462 dc         1 CLA      0.083100
    133 H2         82.6409   55.0072   35.6594 da         1 CLA      0.180900
    134 H18        85.3990   56.7894   46.3471 dc         1 CLA     -0.003900
    135 H13        82.9162   58.7092   42.4903 dc         1 CLA      0.019700
    136 H12        80.8822   55.0289   33.3568 dc         1 CLA      0.120400
    137 H11        82.4416   54.9929   32.5373 dc         1 CLA      0.120400
    138 C1         69.3192   61.5031   49.3100 Z1         2 LUT      0.509236
    139 C2         68.8409   61.9697   50.6545 Z2         2 LUT     -0.434695
    140 C3         67.3473   62.2410   50.6637 Z3         2 LUT      0.437453
    141 O3         67.0573   63.0031   51.8339 S1         2 LUT     -0.547129
    142 C4         66.9412   63.1749   49.4970 Z4         2 LUT     -0.468603
    143 C5         67.6302   63.0011   48.1146 Z5         2 LUT      0.279246
    144 C6         68.7189   62.1772   48.0096 Z6         2 LUT     -0.305473
    145 C7         69.2913   61.7540   46.7167 Z7         2 LUT      0.069402
    146 C8         70.4284   62.2383   46.2344 Z8         2 LUT     -0.191631
    147 C9         70.8962   62.0074   44.8167 Z9         2 LUT      0.196698
    148 C10        72.0372   62.6594   44.4952 Y1         2 LUT     -0.208611
    149 C11        72.7615   62.6885   43.2765 Y2         2 LUT      0.030784
    150 C12        73.9734   63.2803   43.1566 Y3         2 LUT     -0.220316
    151 C13        74.9121   63.3397   42.0753 Y4         2 LUT      0.215937
    152 C14        76.1695   63.8337   42.2863 Y5         2 LUT     -0.185793
    153 C15        77.3175   64.0925   41.4056 Y6         2 LUT     -0.057835
    154 C16        69.1747   59.9705   49.2957 Y7         2 LUT     -0.405615
    155 C17        70.8829   61.6268   49.3037 Y7         2 LUT     -0.405615
    156 C18        66.9881   63.7722   46.9656 Y9         2 LUT     -0.369639
    157 C19        70.3321   60.9844   43.7938 W1         2 LUT     -0.333362
    158 C20        74.4261   62.8394   40.7087 W2         2 LUT     -0.323439
    159 C21        87.9958   66.2518   34.8558 Z1         2 LUT      0.406104
    160 C22        88.7267   65.8384   33.5582 Z2         2 LUT     -0.404965
    161 C23        89.0745   66.9701   32.7335 Z3         2 LUT      0.391255
    162 O23        89.7880   66.6265   31.5374 S1         2 LUT     -0.528210
    163 C24        87.8330   67.7761   32.4379 W6         2 LUT     -0.258361
    164 C25        86.6949   67.6695   33.0709 Z5         2 LUT      0.133546
    165 C26        86.5813   66.7830   34.3722 W8         2 LUT     -0.147008
    166 C27        85.7749   67.3925   35.4893 Z7         2 LUT      0.023843
    167 C28        84.8136   66.6851   36.1499 Z8         2 LUT     -0.216987
    168 C29        84.1693   67.0274   37.4143 Z9         2 LUT      0.206524
    169 C30        83.1016   66.3299   37.8015 Y1         2 LUT     -0.215556
    170 C31        82.2861   66.5972   38.9957 Y2         2 LUT      0.025142
    171 C32        81.2518   65.8501   39.2928 Y3         2 LUT     -0.212209
    172 C33        80.3363   65.9543   40.4083 Y4         2 LUT      0.240937
    173 C34        79.3961   65.0433   40.5318 Y5         2 LUT     -0.218862
    174 C35        78.3549   64.9810   41.5843 Y6         2 LUT     -0.023547
    175 C36        88.8317   67.2899   35.6998 Y7         2 LUT     -0.393485
    176 C37        87.9146   64.9691   35.7688 Y7         2 LUT     -0.393485
    177 C38        85.4704   68.4580   32.6658 Y9         2 LUT     -0.387526
    178 C39        84.7510   68.2209   38.1498 W1         2 LUT     -0.322618
    179 C40        80.5500   67.1588   41.4212 W2         2 LUT     -0.358472
    180 H403       81.5621   67.4299   41.7372 R7         2 LUT      0.097720
    181 H402       80.0852   68.0867   41.1791 R7         2 LUT      0.097720
    182 H401       80.2009   66.8105   42.4013 R7         2 LUT      0.097720
    183 H393       85.8353   68.3047   37.9617 R4         2 LUT      0.082505
    184 H392       84.2107   69.0663   37.7967 R4         2 LUT      0.082505
    185 H391       84.6888   68.1886   39.2122 R4         2 LUT      0.082505
    186 H383       84.7332   68.6507   33.4361 R1         2 LUT      0.104030
    187 H382       85.7758   69.3245   32.1074 R1         2 LUT      0.104030
    188 H381       84.9191   67.7341   31.9766 R1         2 LUT      0.104030
    189 H373       88.8728   64.5719   36.1343 T4         2 LUT      0.089537
    190 H372       87.4323   65.1761   36.7365 T4         2 LUT      0.089537
    191 H371       87.3315   64.1229   35.3534 T4         2 LUT      0.089537
    192 H363       88.3207   67.6568   36.6091 T4         2 LUT      0.089537
    193 H362       89.7751   66.8622   36.0345 T4         2 LUT      0.089537
    194 H361       89.0569   68.2431   35.1464 T4         2 LUT      0.089537
    195 H222       89.6889   65.3385   33.7070 U2         2 LUT      0.127376
    196 H221       88.1505   65.1352   32.9921 U2         2 LUT      0.127376
    197 H203       73.4414   63.3244   40.5028 R7         2 LUT      0.087068
    198 H202       75.1444   62.8814   39.9284 R7         2 LUT      0.087068
    199 H201       74.1874   61.7394   40.7497 R7         2 LUT      0.087068
    200 H193       71.0880   60.5631   43.1340 R4         2 LUT      0.089716
    201 H192       69.9448   60.1499   44.3377 R4         2 LUT      0.089716
    202 H191       69.4961   61.4355   43.3006 R4         2 LUT      0.089716
    203 H183       67.5705   64.6897   46.8526 R1         2 LUT      0.094572
    204 H182       66.9595   63.2206   46.0192 R1         2 LUT      0.094572
    205 H181       65.9392   64.1518   47.1887 R1         2 LUT      0.094572
    206 H173       71.2239   62.5826   49.5944 T4         2 LUT      0.093752
    207 H172       71.2996   61.0074   50.0688 T4         2 LUT      0.093752
    208 H171       71.3397   61.4625   48.3483 T4         2 LUT      0.093752
    209 H163       68.1247   59.7850   49.5049 T4         2 LUT      0.093752
    210 H162       69.5125   59.5894   48.3170 T4         2 LUT      0.093752
    211 H161       69.8352   59.3551   50.0426 T4         2 LUT      0.093752
    212 HO3        66.9454   62.4719   52.6466 Q1         2 LUT      0.300121
    213 H8         71.0185   62.9273   46.7863 U7         2 LUT      0.080784
    214 H7         68.6118   61.1548   46.1150 U6         2 LUT      0.042190
    215 H42        65.8470   63.1008   49.4154 U5         2 LUT      0.145166
    216 H41        67.0198   64.2244   49.7276 U5         2 LUT      0.145166
    217 H35        78.4578   65.4511   42.5708 T3         2 LUT      0.077919
    218 H34        79.1673   64.3258   39.7805 T2         2 LUT      0.073626
    219 H32        81.0914   64.9207   38.6614 T1         2 LUT      0.092510
    220 H31        82.5283   67.4238   39.6580 U9         2 LUT      0.070048
    221 H30        82.7256   65.5174   37.2016 U8         2 LUT      0.085442
    222 H3         66.7318   61.3663   50.4268 U3         2 LUT     -0.031596
    223 H28        84.5381   65.6934   35.7303 U7         2 LUT      0.084728
    224 H27        85.9031   68.4100   35.7728 U6         2 LUT      0.087291
    225 H26        86.0181   65.9100   34.0348 Q6         2 LUT      0.075325
    226 H24        87.8277   68.4134   31.5782 Q5         2 LUT      0.094482
    227 H23        89.9296   67.6390   33.0782 U3         2 LUT     -0.024869
    228 H22        69.0202   61.3630   51.5107 U2         2 LUT      0.127376
    229 H21        69.2035   62.9395   50.8370 U2         2 LUT      0.127376
    230 H15        77.3457   63.5446   40.5052 T3         2 LUT      0.093200
    231 H14        76.2909   64.2772   43.2943 T2         2 LUT      0.068865
    232 H12        74.3490   63.8004   43.9675 T1         2 LUT      0.095507
    233 H11        72.3306   62.1557   42.4109 U9         2 LUT      0.068930
    234 H10        72.5614   63.3303   45.1342 U8         2 LUT      0.083911
    235 H1         89.1624   66.2533   30.8277 Q1         2 LUT      0.297311
@<TRIPOS>BOND
    1     6     1 1
    2     7     2 1
    3     8     3 1
    4     9     4 1
    5    11     4 1
    6    12     6 1
    7    13     9 1
    8    16     9 1
    9    25     5 1
   10    25    16 1
   11    26    10 1
   12    26    17 1
   13    27    18 1
   14    28    14 1
   15    28    19 1
   16    29    12 1
   17    30    13 1
   18    31    24 1
   19    32     1 1
   20    32    25 1
   21    33    21 1
   22    33    26 1
   23    34    22 1
   24    34    27 1
   25    35    23 1
   26    35    28 1
   27    36    12 1
   28    36    24 1
   29    37    13 1
   30    37    15 1
   31    38    31 1
   32    39    20 1
   33    39    32 1
   34    40     2 1
   35    40    33 1
   36    41     3 1
   37    41    34 1
   38    42     4 1
   39    42    35 1
   40    43    38 1
   41    44     5 1
   42    44    17 1
   43    44    39 1
   44    45    10 1
   45    45    18 1
   46    45    40 1
   47    46    19 1
   48    46    41 1
   49    47    14 1
   50    47    16 1
   51    47    42 1
   52    48    38 1
   53    49    48 1
   54    50    49 1
   55    51    50 1
   56    52    51 1
   57    53    51 1
   58    54    53 1
   59    55    54 1
   60    56    55 1
   61    57    56 1
   62    58    56 1
   63    59    58 1
   64    60    59 1
   65    61    60 1
   66    62    61 1
   67    63    61 1
   68    64    27 1
   69    64    46 1
   70    65     5 1
   71    65    10 1
   72    65    64 1
   73    65    14 1
   74    66    23 1
   75    67    23 1
   76    68    23 1
   77    69    22 1
   78    70    22 1
   79    71    22 1
   80    72    21 1
   81    73    21 1
   82    74    21 1
   83    75    20 1
   84    76    20 1
   85    77    20 1
   86    78    15 1
   87    79    15 1
   88    80    15 1
   89    81     8 1
   90    82     8 1
   91    83     8 1
   92    84     7 1
   93    85     7 1
   94    86     6 1
   95    87     6 1
   96    88     3 1
   97    89     3 1
   98    90     1 1
   99    91     1 1
  100    92    63 1
  101    93    63 1
  102    94    63 1
  103    95    62 1
  104    96    62 1
  105    97    62 1
  106    98    60 1
  107    99    60 1
  108   100    59 1
  109   101    59 1
  110   102    58 1
  111   103    58 1
  112   104    57 1
  113   105    57 1
  114   106    57 1
  115   107    55 1
  116   108    55 1
  117   109    54 1
  118   110    54 1
  119   111    53 1
  120   112    53 1
  121   113    19 1
  122   114    18 1
  123   115    17 1
  124   116     9 1
  125   117     2 1
  126   118    52 1
  127   119    52 1
  128   120    52 1
  129   121    51 1
  130   122    50 1
  131   123    50 1
  132   124    49 1
  133   125    49 1
  134   126    48 1
  135   127    48 1
  136   128    43 1
  137   129    43 1
  138   130    43 1
  139   131    39 1
  140   132    32 1
  141   133    31 1
  142   134    61 1
  143   135    56 1
  144   136    24 1
  145   137    24 1
  146   139   138 1
  147   140   139 1
  148   141   140 1
  149   142   140 1
  150   143   142 1
  151   144   138 1
  152   144   143 1
  153   145   144 1
  154   146   145 1
  155   147   146 1
  156   148   147 1
  157   149   148 1
  158   150   149 1
  159   151   150 1
  160   152   151 1
  161   153   152 1
  162   154   138 1
  163   155   138 1
  164   156   143 1
  165   157   147 1
  166   158   151 1
  167   160   159 1
  168   161   160 1
  169   162   161 1
  170   163   161 1
  171   164   163 1
  172   165   159 1
  173   165   164 1
  174   166   165 1
  175   167   166 1
  176   168   167 1
  177   169   168 1
  178   170   169 1
  179   171   170 1
  180   172   171 1
  181   173   172 1
  182   174   153 1
  183   174   173 1
  184   175   159 1
  185   176   159 1
  186   177   164 1
  187   178   168 1
  188   179   172 1
  189   180   179 1
  190   181   179 1
  191   182   179 1
  192   183   178 1
  193   184   178 1
  194   185   178 1
  195   186   177 1
  196   187   177 1
  197   188   177 1
  198   189   176 1
  199   190   176 1
  200   191   176 1
  201   192   175 1
  202   193   175 1
  203   194   175 1
  204   195   160 1
  205   196   160 1
  206   197   158 1
  207   198   158 1
  208   199   158 1
  209   200   157 1
  210   201   157 1
  211   202   157 1
  212   203   156 1
  213   204   156 1
  214   205   156 1
  215   206   155 1
  216   207   155 1
  217   208   155 1
  218   209   154 1
  219   210   154 1
  220   211   154 1
  221   212   141 1
  222   213   146 1
  223   214   145 1
  224   215   142 1
  225   216   142 1
  226   217   174 1
  227   218   173 1
  228   219   171 1
  229   220   170 1
  230   221   169 1
  231   222   140 1
  232   223   167 1
  233   224   166 1
  234   225   165 1
  235   226   163 1
  236   227   161 1
  237   228   139 1
  238   229   139 1
  239   230   153 1
  240   231   152 1
  241   232   150 1
  242   233   149 1
  243   234   148 1
  244   235   162 1
  245   65    153 1
  246   65    174 1
@<TRIPOS>SUBSTRUCTURE
      1 CLA               1 ****               0 ****  **** 
      2 LUT             138 ****               0 ****  **** 
