@<TRIPOS>MOLECULE
Cpptraj generated mol2 file.
  235   246     2     0     0
SMALL
USER_CHARGES


@<TRIPOS>ATOM
      1 CAA        78.1167   57.3469   34.0785 a2         1 CLA     -0.055900
      2 CAB        78.4114   61.7679   42.7394 c8         1 CLA     -0.148500
      3 CAC        71.3311   57.8672   42.6507 a2         1 CLA     -0.012600
      4 CAD        73.8159   54.8470   35.5527 ck         1 CLA      0.398800
      5 NA         77.1519   57.8501   37.4480 ns         1 CLA     -0.225500
      6 CBA        79.2350   56.8593   33.1643 a2         1 CLA     -0.135000
      7 CBB        79.6201   61.9366   43.3039 c0         1 CLA     -0.395200
      8 CBC        71.2229   56.3432   42.7934 a3         1 CLA     -0.037700
      9 CBD        75.2727   55.2134   35.2739 a1         1 CLA     -0.053900
     10 NB         77.1537   59.6569   39.9542 nm         1 CLA     -0.295700
     11 OBD        73.2014   54.0578   34.8594 o2         1 CLA     -0.494600
     12 CGA        79.4240   55.3193   33.1409 c4         1 CLA      0.827000
     13 CGD        76.0471   53.9838   35.4187 c4         1 CLA      0.655300
     14 ND         74.3755   57.2148   38.2126 nm         1 CLA     -0.291600
     15 CED        76.9126   52.2927   36.9146 a3         1 CLA      0.005400
     16 CHA        75.6857   56.3285   36.2283 cs         1 CLA     -0.123800
     17 CHB        78.9879   59.1838   38.3549 aa         1 CLA     -0.291900
     18 CHC        75.8792   60.1832   41.9712 aa         1 CLA     -0.090400
     19 CHD        72.5887   57.3856   39.8238 aa         1 CLA     -0.052000
     20 CMA        80.4218   56.6342   36.8483 a3         1 CLA     -0.230700
     21 CMB        80.4691   61.2151   40.2366 a3         1 CLA     -0.180800
     22 CMC        73.5661   59.8954   44.0291 a3         1 CLA     -0.134000
     23 CMD        71.0846   55.5563   37.7237 a3         1 CLA     -0.141100
     24 C1         80.4291   53.4961   34.1748 a2         1 CLA      0.023000
     25 C1A        76.9100   56.9839   36.3831 ac         1 CLA     -0.015100
     26 C1B        78.4253   59.7701   39.5237 cr         1 CLA      0.054700
     27 C1C        74.6993   59.4868   41.8072 cn         1 CLA     -0.005600
     28 C1D        73.0849   56.9192   38.5443 ap         1 CLA     -0.047300
     29 O1A        78.9120   54.5607   32.3407 o2         1 CLA     -0.610800
     30 O1D        76.5675   53.4140   34.4850 o2         1 CLA     -0.558200
     31 C2         81.0461   52.9623   35.4671 c8         1 CLA     -0.325100
     32 C2A        78.2586   56.8349   35.5961 a1         1 CLA      0.098600
     33 C2B        79.0941   60.6477   40.4408 cb         1 CLA      0.088500
     34 C2C        73.5626   59.2181   42.7408 cb         1 CLA      0.053700
     35 C2D        72.4466   56.0874   37.5431 cb         1 CLA      0.058900
     36 O2A        80.3475   54.9667   34.0841 o1         1 CLA     -0.437200
     37 O2D        76.2001   53.5714   36.7131 o1         1 CLA     -0.357600
     38 C3         82.0226   52.0696   35.6156 c5         1 CLA      0.031200
     39 C3A        79.2851   57.6233   36.3381 a1         1 CLA      0.166800
     40 C3B        78.2258   60.9202   41.5165 cb         1 CLA      0.035000
     41 C3C        72.6495   58.3857   42.1173 cb         1 CLA     -0.089900
     42 C3D        73.3811   55.7190   36.6156 cb         1 CLA     -0.035900
     43 C4         81.7652   50.5949   36.0125 a3         1 CLA     -0.053300
     44 C4A        78.4544   58.1727   37.5231 ac         1 CLA      0.001800
     45 C4B        77.0179   60.2538   41.1801 cn         1 CLA     -0.020900
     46 C4C        73.1885   58.1596   40.7863 cr         1 CLA     -0.044400
     47 C4D        74.5409   56.4821   37.0349 c6         1 CLA     -0.046000
     48 C5         83.5039   52.5383   35.7493 a2         1 CLA     -0.070400
     49 C6         83.7539   53.6832   36.7240 a2         1 CLA      0.043900
     50 C7         85.2692   53.7277   37.1833 a2         1 CLA     -0.150000
     51 C8         85.8642   55.0208   37.8518 a1         1 CLA      0.064200
     52 C9         87.3746   54.9628   37.8565 a3         1 CLA     -0.259300
     53 C10        85.4073   55.2487   39.3442 a2         1 CLA     -0.071900
     54 C11        83.9175   55.6818   39.6837 a2         1 CLA      0.014500
     55 C12        83.8143   56.3311   41.0889 a2         1 CLA     -0.112100
     56 C13        82.4175   56.4978   41.6891 a1         1 CLA      0.089200
     57 C14        81.6291   57.5316   40.7874 a3         1 CLA     -0.239100
     58 C15        82.3583   56.8043   43.2041 a2         1 CLA     -0.102200
     59 C16        83.1021   58.0406   43.7158 a2         1 CLA      0.023900
     60 C17        82.4097   58.3892   45.0573 a2         1 CLA     -0.105700
     61 C18        82.7777   59.7659   45.5896 a1         1 CLA      0.206800
     62 C19        81.9380   60.3238   46.7383 a3         1 CLA     -0.280100
     63 C20        84.2968   59.8784   45.8162 a3         1 CLA     -0.280100
     64 NC         74.4588   58.7229   40.6570 nx         1 CLA     -0.309200
     65 MG         75.7041   58.5434   38.9541 mg         1 CLA      0.895000
     66 HMD3       70.7291   54.8256   36.9487 dc         1 CLA      0.064300
     67 HMD2       70.9168   55.1565   38.7311 dc         1 CLA      0.064300
     68 HMD1       70.3951   56.3818   37.6613 dc         1 CLA      0.064300
     69 HMC3       74.4614   59.6511   44.5503 dc         1 CLA      0.052100
     70 HMC2       73.5990   60.9413   43.8817 dc         1 CLA      0.052100
     71 HMC1       72.6365   59.6394   44.5517 dc         1 CLA      0.052100
     72 HMB3       80.5503   62.1799   40.7570 dc         1 CLA      0.063600
     73 HMB2       81.2964   60.5475   40.5803 dc         1 CLA      0.063600
     74 HMB1       80.5611   61.3295   39.1344 dc         1 CLA      0.063600
     75 HMA3       81.1251   57.1992   37.4392 dc         1 CLA      0.058300
     76 HMA2       79.9684   55.9106   37.5520 dc         1 CLA      0.058300
     77 HMA1       80.9047   56.2163   36.0012 dc         1 CLA      0.058300
     78 HED3       76.9402   52.0681   38.0065 dc         1 CLA      0.079300
     79 HED2       76.4263   51.4237   36.4632 dc         1 CLA      0.079300
     80 HED1       77.9529   52.3670   36.6012 dc         1 CLA      0.079300
     81 HBC3       72.0888   55.9397   43.4244 dc         1 CLA      0.016300
     82 HBC2       70.3053   56.1468   43.3377 dc         1 CLA      0.016300
     83 HBC1       71.3179   55.8527   41.8085 dc         1 CLA      0.016300
     84 HBB2       79.8210   62.5827   44.2406 da         1 CLA      0.183000
     85 HBB1       80.5539   61.4530   42.8558 da         1 CLA      0.183000
     86 HBA2       79.1042   57.3013   32.1258 dc         1 CLA      0.029400
     87 HBA1       80.1366   57.2850   33.6814 dc         1 CLA      0.029400
     88 HAC2       71.1692   58.2316   43.6515 dc         1 CLA      0.029300
     89 HAC1       70.5725   58.2796   41.9686 dc         1 CLA      0.029300
     90 HAA2       77.1924   56.9051   33.6513 dc         1 CLA      0.028700
     91 HAA1       78.0922   58.4020   33.9205 dc         1 CLA      0.028700
     92 H203       84.6236   59.8422   44.8312 dc         1 CLA      0.065600
     93 H202       84.5829   60.8681   46.2379 dc         1 CLA      0.065600
     94 H201       84.7647   59.0308   46.3407 dc         1 CLA      0.065600
     95 H193       82.2099   61.3700   47.0030 dc         1 CLA      0.065600
     96 H192       80.8521   60.2524   46.5261 dc         1 CLA      0.065600
     97 H191       82.1647   59.7570   47.6350 dc         1 CLA      0.065600
     98 H172       81.3254   58.4208   44.7643 dc         1 CLA      0.027600
     99 H171       82.5484   57.5541   45.8320 dc         1 CLA      0.027600
    100 H162       84.1935   57.8939   43.7552 dc         1 CLA      0.002900
    101 H161       82.9141   58.8846   43.0780 dc         1 CLA      0.002900
    102 H152       81.3023   56.7685   43.4149 dc         1 CLA      0.029100
    103 H151       82.6995   55.8580   43.6281 dc         1 CLA      0.029100
    104 H143       81.4311   56.9803   39.8898 dc         1 CLA      0.063600
    105 H142       80.6706   57.8404   41.1646 dc         1 CLA      0.063600
    106 H141       82.1676   58.3858   40.4351 dc         1 CLA      0.063600
    107 H122       84.3964   55.6703   41.6963 dc         1 CLA      0.032500
    108 H121       84.2732   57.2687   41.0744 dc         1 CLA      0.032500
    109 H112       83.5347   56.2736   38.8812 dc         1 CLA      0.006600
    110 H111       83.3319   54.8048   39.8648 dc         1 CLA      0.006600
    111 H102       85.5677   54.3343   39.8109 dc         1 CLA      0.024100
    112 H101       86.1431   55.8859   39.8334 dc         1 CLA      0.024100
    113 HHD        71.5496   57.0683   40.1466 da         1 CLA      0.174300
    114 HHC        75.8668   60.6917   42.9084 da         1 CLA      0.136800
    115 HHB        80.0581   59.3728   38.1806 da         1 CLA      0.138300
    116 HBD        75.3063   55.5575   34.3017 dc         1 CLA      0.107700
    117 HAB        77.5944   62.2515   43.2253 da         1 CLA      0.155200
    118 H93        87.8532   55.6660   38.5794 dc         1 CLA      0.069500
    119 H92        87.5955   53.9110   38.0613 dc         1 CLA      0.069500
    120 H91        87.5534   55.1470   36.8177 dc         1 CLA      0.069500
    121 H8         85.4771   55.8468   37.3405 dc         1 CLA      0.029300
    122 H72        85.3047   52.9489   37.9326 dc         1 CLA      0.044400
    123 H71        85.8811   53.4487   36.2985 dc         1 CLA      0.044400
    124 H62        83.4319   54.5859   36.2489 dc         1 CLA      0.015600
    125 H61        83.1486   53.5206   37.6201 dc         1 CLA      0.015600
    126 H52        84.0323   51.6928   36.1303 dc         1 CLA      0.033200
    127 H51        83.7413   52.7555   34.7657 dc         1 CLA      0.033200
    128 H43        82.2066   50.0421   35.2102 dc         1 CLA      0.037000
    129 H42        82.3528   50.3466   36.9207 dc         1 CLA      0.037000
    130 H41        80.7284   50.4139   36.0148 dc         1 CLA      0.037000
    131 H3A        79.7370   58.4695   35.7830 dc         1 CLA      0.041100
    132 H2A        78.4010   55.7592   35.6241 dc         1 CLA      0.083100
    133 H2         80.7177   53.3735   36.3706 da         1 CLA      0.180900
    134 H18        82.5505   60.3834   44.7901 dc         1 CLA     -0.003900
    135 H13        81.8755   55.5891   41.5577 dc         1 CLA      0.019700
    136 H12        79.4017   52.9795   34.1463 dc         1 CLA      0.120400
    137 H11        80.9958   53.1249   33.3658 dc         1 CLA      0.120400
    138 C1         67.7399   61.1258   49.9599 Z1         2 LUT      0.509236
    139 C2         66.4365   60.8511   50.6670 Z2         2 LUT     -0.434695
    140 C3         65.4712   61.9650   50.9257 Z3         2 LUT      0.437453
    141 O3         65.4372   62.4541   52.2231 S1         2 LUT     -0.547129
    142 C4         65.6294   63.1227   49.9759 Z4         2 LUT     -0.468603
    143 C5         66.2998   62.8508   48.7663 Z5         2 LUT      0.279246
    144 C6         67.3491   61.9357   48.6999 Z6         2 LUT     -0.305473
    145 C7         67.7928   61.4628   47.3078 Z7         2 LUT      0.069402
    146 C8         68.9130   61.6546   46.5856 Z8         2 LUT     -0.191631
    147 C9         69.1781   61.2398   45.1905 Z9         2 LUT      0.196698
    148 C10        70.2309   61.9230   44.6047 Y1         2 LUT     -0.208611
    149 C11        70.7041   61.7708   43.2400 Y2         2 LUT      0.030784
    150 C12        71.8769   62.4748   42.9014 Y3         2 LUT     -0.220316
    151 C13        72.6546   62.3142   41.6155 Y4         2 LUT      0.215937
    152 C14        73.8783   62.9911   41.5549 Y5         2 LUT     -0.185793
    153 C15        74.9184   63.0458   40.5677 Y6         2 LUT     -0.057835
    154 C16        68.3389   59.7701   49.5810 Y7         2 LUT     -0.405615
    155 C17        68.7567   61.8801   50.9137 Y7         2 LUT     -0.405615
    156 C18        65.8384   63.7107   47.6356 Y9         2 LUT     -0.369639
    157 C19        68.2998   60.1881   44.6161 W1         2 LUT     -0.333362
    158 C20        72.0879   61.5599   40.4437 W2         2 LUT     -0.323439
    159 C21        86.6949   64.6721   35.1372 Z1         2 LUT      0.406104
    160 C22        87.5272   64.2848   33.9267 Z2         2 LUT     -0.404965
    161 C23        87.8059   65.4588   32.9705 Z3         2 LUT      0.391255
    162 O23        88.6512   64.9547   31.9579 S1         2 LUT     -0.528210
    163 C24        86.5226   66.1165   32.6631 W6         2 LUT     -0.258361
    164 C25        85.4240   66.2095   33.4144 Z5         2 LUT      0.133546
    165 C26        85.3296   65.2823   34.6797 W8         2 LUT     -0.147008
    166 C27        84.4890   65.8041   35.8158 Z7         2 LUT      0.023843
    167 C28        83.6022   65.0391   36.5192 Z8         2 LUT     -0.216987
    168 C29        82.7548   65.4293   37.6736 Z9         2 LUT      0.206524
    169 C30        81.7223   64.6563   38.0718 Y1         2 LUT     -0.215556
    170 C31        80.6841   64.9099   39.0755 Y2         2 LUT      0.025142
    171 C32        79.5072   64.1801   39.1146 Y3         2 LUT     -0.212209
    172 C33        78.4354   64.2858   40.1256 Y4         2 LUT      0.240937
    173 C34        77.2524   63.5965   39.9428 Y5         2 LUT     -0.218862
    174 C35        76.0425   63.7143   40.8110 Y6         2 LUT     -0.023547
    175 C36        87.5605   65.5973   36.0075 Y7         2 LUT     -0.393485
    176 C37        86.7215   63.3100   35.9402 Y7         2 LUT     -0.393485
    177 C38        84.1255   66.8616   32.9921 Y9         2 LUT     -0.387526
    178 C39        83.1054   66.8218   38.2756 W1         2 LUT     -0.322618
    179 C40        78.7299   65.2326   41.3321 W2         2 LUT     -0.358472
    180 H403       79.7663   65.5000   41.4149 R7         2 LUT      0.097720
    181 H402       78.1382   66.1149   41.2203 R7         2 LUT      0.097720
    182 H401       78.3267   64.6870   42.2251 R7         2 LUT      0.097720
    183 H393       84.1753   66.8593   38.6217 R4         2 LUT      0.082505
    184 H392       83.0451   67.5588   37.4576 R4         2 LUT      0.082505
    185 H391       82.6533   67.2300   39.1248 R4         2 LUT      0.082505
    186 H383       83.7915   66.3338   32.1072 R1         2 LUT      0.104030
    187 H382       83.3210   66.9211   33.7071 R1         2 LUT      0.104030
    188 H381       84.4473   67.9140   32.6032 R1         2 LUT      0.104030
    189 H373       87.7104   63.0728   36.3155 T4         2 LUT      0.089537
    190 H372       86.0103   63.2804   36.7504 T4         2 LUT      0.089537
    191 H371       86.4140   62.5213   35.2353 T4         2 LUT      0.089537
    192 H363       87.0333   66.0585   36.8960 T4         2 LUT      0.089537
    193 H362       88.4912   65.0991   36.3125 T4         2 LUT      0.089537
    194 H361       87.8595   66.4144   35.4370 T4         2 LUT      0.089537
    195 H222       88.5157   63.8297   34.1228 U2         2 LUT      0.127376
    196 H221       86.9491   63.5575   33.3358 U2         2 LUT      0.127376
    197 H203       71.4541   62.0690   39.7931 R7         2 LUT      0.087068
    198 H202       72.8703   61.0940   39.8393 R7         2 LUT      0.087068
    199 H201       71.5984   60.6798   40.8101 R7         2 LUT      0.087068
    200 H193       67.2486   60.4744   44.6110 R4         2 LUT      0.089716
    201 H192       68.6343   59.8654   43.6593 R4         2 LUT      0.089716
    202 H191       68.3223   59.3184   45.1581 R4         2 LUT      0.089716
    203 H183       64.9365   64.2721   47.8841 R1         2 LUT      0.094572
    204 H182       66.5475   64.6023   47.5838 R1         2 LUT      0.094572
    205 H181       65.7313   63.1906   46.6549 R1         2 LUT      0.094572
    206 H173       69.7602   62.0534   50.5652 T4         2 LUT      0.093752
    207 H172       68.2750   62.8343   51.2439 T4         2 LUT      0.093752
    208 H171       68.7902   61.3070   51.8584 T4         2 LUT      0.093752
    209 H163       68.7259   59.1146   50.3591 T4         2 LUT      0.093752
    210 H162       67.6274   59.2354   48.8948 T4         2 LUT      0.093752
    211 H161       69.2009   59.9582   48.8974 T4         2 LUT      0.093752
    212 HO3        64.7360   62.0065   52.7259 Q1         2 LUT      0.300121
    213 H8         69.7026   62.2430   47.0632 U7         2 LUT      0.080784
    214 H7         66.9579   60.9128   46.8732 U6         2 LUT      0.042190
    215 H42        64.6510   63.4899   49.8014 U5         2 LUT      0.145166
    216 H41        66.2890   63.8776   50.4582 U5         2 LUT      0.145166
    217 H35        76.1187   64.1088   41.7794 T3         2 LUT      0.077919
    218 H34        77.1226   63.0055   38.9470 T2         2 LUT      0.073626
    219 H32        79.2937   63.5310   38.2639 T1         2 LUT      0.092510
    220 H31        80.9124   65.7358   39.7561 U9         2 LUT      0.070048
    221 H30        81.5619   63.7547   37.4802 U8         2 LUT      0.085442
    222 H3         64.5023   61.4464   50.6289 U3         2 LUT     -0.031596
    223 H28        83.5430   64.0516   36.3027 U7         2 LUT      0.084728
    224 H27        84.6951   66.8207   36.1500 U6         2 LUT      0.087291
    225 H26        84.8245   64.3911   34.2350 Q6         2 LUT      0.075325
    226 H24        86.4981   66.7655   31.7551 Q5         2 LUT      0.094482
    227 H23        88.2596   66.2398   33.5725 U3         2 LUT     -0.024869
    228 H22        65.9433   60.2717   49.9244 U2         2 LUT      0.127376
    229 H21        66.5188   60.1721   51.5445 U2         2 LUT      0.127376
    230 H15        74.8699   62.4216   39.6999 T3         2 LUT      0.093200
    231 H14        74.1981   63.5828   42.4232 T2         2 LUT      0.068865
    232 H12        72.3604   63.1421   43.6355 T1         2 LUT      0.095507
    233 H11        70.1267   61.1661   42.5320 U9         2 LUT      0.068930
    234 H10        70.8388   62.5778   45.2034 U8         2 LUT      0.083911
    235 H1         88.2755   64.1736   31.4312 Q1         2 LUT      0.297311
@<TRIPOS>BOND
    1     6     1 1
    2     7     2 1
    3     8     3 1
    4     9     4 1
    5    11     4 1
    6    12     6 1
    7    13     9 1
    8    16     9 1
    9    25     5 1
   10    25    16 1
   11    26    10 1
   12    26    17 1
   13    27    18 1
   14    28    14 1
   15    28    19 1
   16    29    12 1
   17    30    13 1
   18    31    24 1
   19    32     1 1
   20    32    25 1
   21    33    21 1
   22    33    26 1
   23    34    22 1
   24    34    27 1
   25    35    23 1
   26    35    28 1
   27    36    12 1
   28    36    24 1
   29    37    13 1
   30    37    15 1
   31    38    31 1
   32    39    20 1
   33    39    32 1
   34    40     2 1
   35    40    33 1
   36    41     3 1
   37    41    34 1
   38    42     4 1
   39    42    35 1
   40    43    38 1
   41    44     5 1
   42    44    17 1
   43    44    39 1
   44    45    10 1
   45    45    18 1
   46    45    40 1
   47    46    19 1
   48    46    41 1
   49    47    14 1
   50    47    16 1
   51    47    42 1
   52    48    38 1
   53    49    48 1
   54    50    49 1
   55    51    50 1
   56    52    51 1
   57    53    51 1
   58    54    53 1
   59    55    54 1
   60    56    55 1
   61    57    56 1
   62    58    56 1
   63    59    58 1
   64    60    59 1
   65    61    60 1
   66    62    61 1
   67    63    61 1
   68    64    27 1
   69    64    46 1
   70    65     5 1
   71    65    10 1
   72    65    64 1
   73    65    14 1
   74    66    23 1
   75    67    23 1
   76    68    23 1
   77    69    22 1
   78    70    22 1
   79    71    22 1
   80    72    21 1
   81    73    21 1
   82    74    21 1
   83    75    20 1
   84    76    20 1
   85    77    20 1
   86    78    15 1
   87    79    15 1
   88    80    15 1
   89    81     8 1
   90    82     8 1
   91    83     8 1
   92    84     7 1
   93    85     7 1
   94    86     6 1
   95    87     6 1
   96    88     3 1
   97    89     3 1
   98    90     1 1
   99    91     1 1
  100    92    63 1
  101    93    63 1
  102    94    63 1
  103    95    62 1
  104    96    62 1
  105    97    62 1
  106    98    60 1
  107    99    60 1
  108   100    59 1
  109   101    59 1
  110   102    58 1
  111   103    58 1
  112   104    57 1
  113   105    57 1
  114   106    57 1
  115   107    55 1
  116   108    55 1
  117   109    54 1
  118   110    54 1
  119   111    53 1
  120   112    53 1
  121   113    19 1
  122   114    18 1
  123   115    17 1
  124   116     9 1
  125   117     2 1
  126   118    52 1
  127   119    52 1
  128   120    52 1
  129   121    51 1
  130   122    50 1
  131   123    50 1
  132   124    49 1
  133   125    49 1
  134   126    48 1
  135   127    48 1
  136   128    43 1
  137   129    43 1
  138   130    43 1
  139   131    39 1
  140   132    32 1
  141   133    31 1
  142   134    61 1
  143   135    56 1
  144   136    24 1
  145   137    24 1
  146   139   138 1
  147   140   139 1
  148   141   140 1
  149   142   140 1
  150   143   142 1
  151   144   138 1
  152   144   143 1
  153   145   144 1
  154   146   145 1
  155   147   146 1
  156   148   147 1
  157   149   148 1
  158   150   149 1
  159   151   150 1
  160   152   151 1
  161   153   152 1
  162   154   138 1
  163   155   138 1
  164   156   143 1
  165   157   147 1
  166   158   151 1
  167   160   159 1
  168   161   160 1
  169   162   161 1
  170   163   161 1
  171   164   163 1
  172   165   159 1
  173   165   164 1
  174   166   165 1
  175   167   166 1
  176   168   167 1
  177   169   168 1
  178   170   169 1
  179   171   170 1
  180   172   171 1
  181   173   172 1
  182   174   153 1
  183   174   173 1
  184   175   159 1
  185   176   159 1
  186   177   164 1
  187   178   168 1
  188   179   172 1
  189   180   179 1
  190   181   179 1
  191   182   179 1
  192   183   178 1
  193   184   178 1
  194   185   178 1
  195   186   177 1
  196   187   177 1
  197   188   177 1
  198   189   176 1
  199   190   176 1
  200   191   176 1
  201   192   175 1
  202   193   175 1
  203   194   175 1
  204   195   160 1
  205   196   160 1
  206   197   158 1
  207   198   158 1
  208   199   158 1
  209   200   157 1
  210   201   157 1
  211   202   157 1
  212   203   156 1
  213   204   156 1
  214   205   156 1
  215   206   155 1
  216   207   155 1
  217   208   155 1
  218   209   154 1
  219   210   154 1
  220   211   154 1
  221   212   141 1
  222   213   146 1
  223   214   145 1
  224   215   142 1
  225   216   142 1
  226   217   174 1
  227   218   173 1
  228   219   171 1
  229   220   170 1
  230   221   169 1
  231   222   140 1
  232   223   167 1
  233   224   166 1
  234   225   165 1
  235   226   163 1
  236   227   161 1
  237   228   139 1
  238   229   139 1
  239   230   153 1
  240   231   152 1
  241   232   150 1
  242   233   149 1
  243   234   148 1
  244   235   162 1
  245   65    153 1
  246   65    174 1
@<TRIPOS>SUBSTRUCTURE
      1 CLA               1 ****               0 ****  **** 
      2 LUT             138 ****               0 ****  **** 
