@<TRIPOS>MOLECULE
Cpptraj generated mol2 file.
  235   246     2     0     0
SMALL
USER_CHARGES


@<TRIPOS>ATOM
      1 CAA        79.6634   58.0245   34.5374 a2         1 CLA     -0.055900
      2 CAB        79.4952   62.3108   43.1829 c8         1 CLA     -0.148500
      3 CAC        72.6914   57.8347   42.8872 a2         1 CLA     -0.012600
      4 CAD        75.2836   55.6544   35.5153 ck         1 CLA      0.398800
      5 NA         78.5419   58.4534   37.8171 ns         1 CLA     -0.225500
      6 CBA        80.9483   57.7463   33.7714 a2         1 CLA     -0.135000
      7 CBB        80.5824   62.3578   43.9284 c0         1 CLA     -0.395200
      8 CBC        72.7955   56.3011   43.1822 a3         1 CLA     -0.037700
      9 CBD        76.6979   56.0966   35.2312 a1         1 CLA     -0.053900
     10 NB         78.3196   60.2860   40.1580 nm         1 CLA     -0.295700
     11 OBD        74.5801   54.9415   34.7558 o2         1 CLA     -0.494600
     12 CGA        81.1803   56.2765   33.4237 c4         1 CLA      0.827000
     13 CGD        77.5493   54.9025   34.9367 c4         1 CLA      0.655300
     14 ND         75.8147   57.6666   38.4108 nm         1 CLA     -0.291600
     15 CED        78.1946   52.7368   35.8709 a3         1 CLA      0.005400
     16 CHA        77.1762   56.8816   36.4538 cs         1 CLA     -0.123800
     17 CHB        80.3631   59.6689   38.9002 aa         1 CLA     -0.291900
     18 CHC        77.0379   60.5875   42.2591 aa         1 CLA     -0.090400
     19 CHD        74.0188   57.4757   40.0942 aa         1 CLA     -0.052000
     20 CMA        81.6986   56.9569   37.7240 a3         1 CLA     -0.230700
     21 CMB        81.7630   61.7381   40.7150 a3         1 CLA     -0.180800
     22 CMC        74.6997   59.9030   44.3844 a3         1 CLA     -0.134000
     23 CMD        72.7721   55.4168   37.9079 a3         1 CLA     -0.141100
     24 C1         82.1816   54.3089   34.3320 a2         1 CLA      0.023000
     25 C1A        78.3930   57.5560   36.7362 ac         1 CLA     -0.015100
     26 C1B        79.7159   60.3695   39.9453 cr         1 CLA      0.054700
     27 C1C        75.8999   59.7940   41.9741 cn         1 CLA     -0.005600
     28 C1D        74.5826   57.1763   38.8383 ap         1 CLA     -0.047300
     29 O1A        80.7445   55.5893   32.5222 o2         1 CLA     -0.610800
     30 O1D        77.8999   54.5894   33.8341 o2         1 CLA     -0.558200
     31 C2         82.7552   53.9534   35.6163 c8         1 CLA     -0.325100
     32 C2A        79.6739   57.4287   36.0080 a1         1 CLA      0.098600
     33 C2B        80.3054   61.3219   40.8702 cb         1 CLA      0.088500
     34 C2C        74.8181   59.4540   42.9807 cb         1 CLA      0.053700
     35 C2D        74.0673   56.2550   37.8795 cb         1 CLA      0.058900
     36 O2A        81.9684   55.7708   34.4205 o1         1 CLA     -0.437200
     37 O2D        77.7018   54.1168   36.0550 o1         1 CLA     -0.357600
     38 C3         83.9072   53.3052   35.9379 c5         1 CLA      0.031200
     39 C3A        80.7776   58.0263   37.0486 a1         1 CLA      0.166800
     40 C3B        79.3715   61.5843   41.8991 cb         1 CLA      0.035000
     41 C3C        73.9282   58.5186   42.3326 cb         1 CLA     -0.089900
     42 C3D        75.0043   56.1618   36.8457 cb         1 CLA     -0.035900
     43 C4         84.0725   51.7303   36.2669 a3         1 CLA     -0.053300
     44 C4A        79.8442   58.8032   38.0148 ac         1 CLA      0.001800
     45 C4B        78.1359   60.8388   41.4579 cn         1 CLA     -0.020900
     46 C4C        74.5046   58.3366   41.0234 cr         1 CLA     -0.044400
     47 C4D        76.0669   57.0022   37.2732 c6         1 CLA     -0.046000
     48 C5         85.1555   54.1329   36.0676 a2         1 CLA     -0.070400
     49 C6         85.4560   54.5395   37.5041 a2         1 CLA      0.043900
     50 C7         86.5471   55.6230   37.3791 a2         1 CLA     -0.150000
     51 C8         87.1527   55.9803   38.8084 a1         1 CLA      0.064200
     52 C9         86.1040   56.9395   39.5947 a3         1 CLA     -0.259300
     53 C10        88.5933   56.5270   38.8024 a2         1 CLA     -0.071900
     54 C11        89.2304   56.8846   40.1557 a2         1 CLA      0.014500
     55 C12        89.2878   55.6424   41.0244 a2         1 CLA     -0.112100
     56 C13        89.9459   55.9695   42.4016 a1         1 CLA      0.089200
     57 C14        90.5402   54.7273   43.1731 a3         1 CLA     -0.239100
     58 C15        89.0288   56.6685   43.4392 a2         1 CLA     -0.102200
     59 C16        87.9063   55.8563   44.0843 a2         1 CLA      0.023900
     60 C17        86.9422   56.7674   44.9602 a2         1 CLA     -0.105700
     61 C18        85.6964   57.4687   44.2641 a1         1 CLA      0.206800
     62 C19        84.9341   58.1065   45.3418 a3         1 CLA     -0.280100
     63 C20        86.0258   58.4525   43.1392 a3         1 CLA     -0.280100
     64 NC         75.6554   59.1252   40.8508 nx         1 CLA     -0.309200
     65 MG         76.9858   59.0623   39.1815 mg         1 CLA      0.895000
     66 HMD3       72.0198   55.8601   37.2201 dc         1 CLA      0.064300
     67 HMD2       72.9070   54.3644   37.6023 dc         1 CLA      0.064300
     68 HMD1       72.4801   55.4728   38.9716 dc         1 CLA      0.064300
     69 HMC3       75.3998   59.4938   45.0798 dc         1 CLA      0.052100
     70 HMC2       74.8460   60.9990   44.3165 dc         1 CLA      0.052100
     71 HMC1       73.6971   59.7258   44.6158 dc         1 CLA      0.052100
     72 HMB3       82.4774   60.8871   40.7152 dc         1 CLA      0.063600
     73 HMB2       81.6731   62.1930   39.6843 dc         1 CLA      0.063600
     74 HMB1       82.0201   62.5069   41.5004 dc         1 CLA      0.063600
     75 HMA3       81.1007   56.3297   38.3460 dc         1 CLA      0.058300
     76 HMA2       82.3538   56.4582   37.0015 dc         1 CLA      0.058300
     77 HMA1       82.3700   57.5383   38.3348 dc         1 CLA      0.058300
     78 HED3       79.2833   52.7738   35.7138 dc         1 CLA      0.079300
     79 HED2       78.1187   52.0887   36.7784 dc         1 CLA      0.079300
     80 HED1       77.8754   52.2080   34.9303 dc         1 CLA      0.079300
     81 HBC3       71.8388   55.8519   43.1032 dc         1 CLA      0.016300
     82 HBC2       73.4452   55.9682   42.3378 dc         1 CLA      0.016300
     83 HBC1       73.3599   56.1053   44.0709 dc         1 CLA      0.016300
     84 HBB2       80.7208   62.9455   44.8607 da         1 CLA      0.183000
     85 HBB1       81.4469   61.8713   43.4748 da         1 CLA      0.183000
     86 HBA2       80.8673   58.1675   32.7535 dc         1 CLA      0.029400
     87 HBA1       81.7940   58.2661   34.2976 dc         1 CLA      0.029400
     88 HAC2       72.2702   58.3349   43.7564 dc         1 CLA      0.029300
     89 HAC1       71.8744   57.9125   42.0955 dc         1 CLA      0.029300
     90 HAA2       78.8690   57.5657   33.9466 dc         1 CLA      0.028700
     91 HAA1       79.4283   59.0888   34.6771 dc         1 CLA      0.028700
     92 H203       86.6369   59.2356   43.4540 dc         1 CLA      0.065600
     93 H202       86.5523   57.9772   42.3740 dc         1 CLA      0.065600
     94 H201       85.1156   58.8027   42.7300 dc         1 CLA      0.065600
     95 H193       83.9885   58.4450   45.0296 dc         1 CLA      0.065600
     96 H192       84.7460   57.4303   46.1435 dc         1 CLA      0.065600
     97 H191       85.5615   58.9979   45.6468 dc         1 CLA      0.065600
     98 H172       86.4646   56.1654   45.7620 dc         1 CLA      0.027600
     99 H171       87.5688   57.4738   45.4496 dc         1 CLA      0.027600
    100 H162       87.4061   55.1385   43.4571 dc         1 CLA      0.002900
    101 H161       88.3761   55.3077   44.8585 dc         1 CLA      0.002900
    102 H152       89.7563   57.0709   44.0899 dc         1 CLA      0.029100
    103 H151       88.5314   57.5379   42.8996 dc         1 CLA      0.029100
    104 H143       91.2399   54.1826   42.6045 dc         1 CLA      0.063600
    105 H142       91.0068   55.1402   44.0975 dc         1 CLA      0.063600
    106 H141       89.7499   54.0115   43.4374 dc         1 CLA      0.063600
    107 H122       88.2670   55.3324   41.2146 dc         1 CLA      0.032500
    108 H121       89.7886   54.7050   40.5732 dc         1 CLA      0.032500
    109 H112       90.2635   57.3579   40.0881 dc         1 CLA      0.006600
    110 H111       88.5696   57.6449   40.5878 dc         1 CLA      0.006600
    111 H102       89.1452   55.7633   38.3375 dc         1 CLA      0.024100
    112 H101       88.6669   57.3637   38.1219 dc         1 CLA      0.024100
    113 HHD        73.0351   56.9572   40.3801 da         1 CLA      0.174300
    114 HHC        76.9403   61.0115   43.2704 da         1 CLA      0.136800
    115 HHB        81.4660   59.7568   38.8620 da         1 CLA      0.138300
    116 HBD        76.7441   56.6853   34.3664 dc         1 CLA      0.107700
    117 HAB        78.5745   62.7983   43.6011 da         1 CLA      0.155200
    118 H93        85.0474   56.6143   39.4061 dc         1 CLA      0.069500
    119 H92        86.4113   56.8997   40.6452 dc         1 CLA      0.069500
    120 H91        86.2459   57.9815   39.1917 dc         1 CLA      0.069500
    121 H8         87.1419   54.9809   39.2670 dc         1 CLA      0.029300
    122 H72        87.3513   55.2960   36.7569 dc         1 CLA      0.044400
    123 H71        86.1795   56.4876   36.9314 dc         1 CLA      0.044400
    124 H62        84.5086   54.9835   37.9278 dc         1 CLA      0.015600
    125 H61        85.8746   53.6919   38.0060 dc         1 CLA      0.015600
    126 H52        85.9822   53.5756   35.6296 dc         1 CLA      0.033200
    127 H51        85.0277   55.0457   35.4603 dc         1 CLA      0.033200
    128 H43        84.4633   51.5441   37.3073 dc         1 CLA      0.037000
    129 H42        83.1141   51.0927   36.2737 dc         1 CLA      0.037000
    130 H41        84.8306   51.3085   35.5906 dc         1 CLA      0.037000
    131 H3A        81.4606   58.7581   36.5904 dc         1 CLA      0.041100
    132 H2A        79.9067   56.3837   35.7984 dc         1 CLA      0.083100
    133 H2         82.4456   54.4299   36.5239 da         1 CLA      0.180900
    134 H18        85.1105   56.6320   43.9102 dc         1 CLA     -0.003900
    135 H13        90.7218   56.7045   42.3404 dc         1 CLA      0.019700
    136 H12        81.2748   53.7708   34.2098 dc         1 CLA      0.120400
    137 H11        82.8833   54.0966   33.5740 dc         1 CLA      0.120400
    138 C1         69.6939   61.5471   50.0797 Z1         2 LUT      0.509236
    139 C2         68.3344   61.3746   50.7993 Z2         2 LUT     -0.434695
    140 C3         67.4516   62.5658   51.0815 Z3         2 LUT      0.437453
    141 O3         67.5716   63.1146   52.3962 S1         2 LUT     -0.547129
    142 C4         67.6453   63.6901   50.0901 Z4         2 LUT     -0.468603
    143 C5         68.4034   63.3649   48.8432 Z5         2 LUT      0.279246
    144 C6         69.3684   62.4242   48.8231 Z6         2 LUT     -0.305473
    145 C7         69.8599   61.8280   47.5547 Z7         2 LUT      0.069402
    146 C8         70.6745   62.5650   46.7414 Z8         2 LUT     -0.191631
    147 C9         71.1954   62.2263   45.4159 Z9         2 LUT      0.196698
    148 C10        72.1105   63.0719   44.9217 Y1         2 LUT     -0.208611
    149 C11        72.8476   63.1291   43.7217 Y2         2 LUT      0.030784
    150 C12        73.9330   63.8972   43.3911 Y3         2 LUT     -0.220316
    151 C13        74.6942   63.8750   42.1228 Y4         2 LUT      0.215937
    152 C14        76.0297   64.3581   42.1261 Y5         2 LUT     -0.185793
    153 C15        77.0449   64.4014   41.1174 Y6         2 LUT     -0.057835
    154 C16        70.4348   60.1370   50.0492 Y7         2 LUT     -0.405615
    155 C17        70.5226   62.3517   51.1020 Y7         2 LUT     -0.405615
    156 C18        67.7728   63.9209   47.6052 Y9         2 LUT     -0.369639
    157 C19        70.7011   61.0179   44.7373 W1         2 LUT     -0.333362
    158 C20        74.1629   63.0973   40.9243 W2         2 LUT     -0.323439
    159 C21        88.8660   65.1046   35.5643 Z1         2 LUT      0.406104
    160 C22        89.3360   64.3076   34.3204 Z2         2 LUT     -0.404965
    161 C23        89.2825   65.1402   33.0289 Z3         2 LUT      0.391255
    162 O23        89.7552   64.2382   32.0518 S1         2 LUT     -0.528210
    163 C24        87.9973   65.8371   32.9556 W6         2 LUT     -0.258361
    164 C25        87.0921   66.0647   33.9388 Z5         2 LUT      0.133546
    165 C26        87.3587   65.5163   35.3544 W8         2 LUT     -0.147008
    166 C27        86.8531   66.3621   36.5049 Z7         2 LUT      0.023843
    167 C28        85.5665   66.2756   37.0117 Z8         2 LUT     -0.216987
    168 C29        84.9334   66.5512   38.3687 Z9         2 LUT      0.206524
    169 C30        83.6084   66.1675   38.5355 Y1         2 LUT     -0.215556
    170 C31        82.7535   66.1835   39.7229 Y2         2 LUT      0.025142
    171 C32        81.5081   65.6035   39.6602 Y3         2 LUT     -0.212209
    172 C33        80.6204   65.5324   40.7060 Y4         2 LUT      0.240937
    173 C34        79.3742   65.0009   40.5863 Y5         2 LUT     -0.218862
    174 C35        78.2557   64.8837   41.4780 Y6         2 LUT     -0.023547
    175 C36        89.9282   66.2382   35.8800 Y7         2 LUT     -0.393485
    176 C37        89.0639   64.0922   36.7469 Y7         2 LUT     -0.393485
    177 C38        85.8408   66.7715   33.6154 Y9         2 LUT     -0.387526
    178 C39        85.7411   67.3187   39.4086 W1         2 LUT     -0.322618
    179 C40        81.1680   65.5356   42.1591 W2         2 LUT     -0.358472
    180 H403       80.6116   64.8551   42.7579 R7         2 LUT      0.097720
    181 H402       82.2246   65.1632   42.2482 R7         2 LUT      0.097720
    182 H401       81.1682   66.5426   42.5203 R7         2 LUT      0.097720
    183 H393       85.2153   67.9502   40.1110 R4         2 LUT      0.082505
    184 H392       86.3626   66.6414   40.0192 R4         2 LUT      0.082505
    185 H391       86.3924   68.0502   38.9170 R4         2 LUT      0.082505
    186 H383       85.0506   66.0982   33.7403 R1         2 LUT      0.104030
    187 H382       85.6683   67.6350   34.2644 R1         2 LUT      0.104030
    188 H381       85.7691   67.1606   32.6182 R1         2 LUT      0.104030
    189 H373       90.0769   63.7577   36.8498 T4         2 LUT      0.089537
    190 H372       88.9767   64.5297   37.7236 T4         2 LUT      0.089537
    191 H371       88.3682   63.2364   36.7160 T4         2 LUT      0.089537
    192 H363       89.6579   66.7059   36.8830 T4         2 LUT      0.089537
    193 H362       90.9352   65.8548   35.8241 T4         2 LUT      0.089537
    194 H361       90.0341   67.0744   35.1571 T4         2 LUT      0.089537
    195 H222       90.3293   63.8673   34.6141 U2         2 LUT      0.127376
    196 H221       88.6685   63.4637   34.1229 U2         2 LUT      0.127376
    197 H203       74.0531   62.0366   41.1320 R7         2 LUT      0.087068
    198 H202       73.1693   63.4168   40.6030 R7         2 LUT      0.087068
    199 H201       74.7876   63.1876   40.0036 R7         2 LUT      0.087068
    200 H193       71.3677   60.1670   44.9975 R4         2 LUT      0.089716
    201 H192       69.6787   60.6654   44.9130 R4         2 LUT      0.089716
    202 H191       70.7386   61.2160   43.7051 R4         2 LUT      0.089716
    203 H183       67.8874   63.2882   46.7229 R1         2 LUT      0.094572
    204 H182       66.7059   64.0857   47.7905 R1         2 LUT      0.094572
    205 H181       68.1484   64.9779   47.4278 R1         2 LUT      0.094572
    206 H173       70.3632   63.3751   50.9158 T4         2 LUT      0.093752
    207 H172       70.5590   62.1460   52.1353 T4         2 LUT      0.093752
    208 H171       71.5481   62.2525   50.7494 T4         2 LUT      0.093752
    209 H163       71.3620   60.1460   49.6323 T4         2 LUT      0.093752
    210 H162       70.3254   59.6818   51.1169 T4         2 LUT      0.093752
    211 H161       69.8419   59.4497   49.3637 T4         2 LUT      0.093752
    212 HO3        67.1295   62.5347   53.0316 Q1         2 LUT      0.300121
    213 H8         70.8131   63.5762   47.1638 U7         2 LUT      0.080784
    214 H7         69.5932   60.8293   47.3005 U6         2 LUT      0.042190
    215 H42        66.7267   64.2185   49.8032 U5         2 LUT      0.145166
    216 H41        68.3337   64.4961   50.5049 U5         2 LUT      0.145166
    217 H35        78.3627   65.0984   42.5168 T3         2 LUT      0.077919
    218 H34        79.1973   64.5939   39.6246 T2         2 LUT      0.073626
    219 H32        81.2383   65.1034   38.7145 T1         2 LUT      0.092510
    220 H31        83.0176   66.6505   40.6794 U9         2 LUT      0.070048
    221 H30        83.1425   65.8315   37.6088 U8         2 LUT      0.085442
    222 H3         66.4139   62.3449   50.8687 U3         2 LUT     -0.031596
    223 H28        84.8934   65.7847   36.3483 U7         2 LUT      0.084728
    224 H27        87.5751   66.7147   37.2431 U6         2 LUT      0.087291
    225 H26        86.6516   64.6570   35.2585 Q6         2 LUT      0.075325
    226 H24        87.8445   66.2696   31.9623 Q5         2 LUT      0.094482
    227 H23        89.9983   65.9489   33.2820 U3         2 LUT     -0.024869
    228 H22        67.7080   60.6817   50.2879 U2         2 LUT      0.127376
    229 H21        68.5581   61.0361   51.7890 U2         2 LUT      0.127376
    230 H15        76.8305   64.0238   40.1009 T3         2 LUT      0.093200
    231 H14        76.3777   64.6827   43.0768 T2         2 LUT      0.068865
    232 H12        74.4160   64.4547   44.1722 T1         2 LUT      0.095507
    233 H11        72.4277   62.4061   42.9368 U9         2 LUT      0.068930
    234 H10        72.4044   63.8807   45.6080 U8         2 LUT      0.083911
    235 H1         89.4152   64.4014   31.1809 Q1         2 LUT      0.297311
@<TRIPOS>BOND
    1     6     1 1
    2     7     2 1
    3     8     3 1
    4     9     4 1
    5    11     4 1
    6    12     6 1
    7    13     9 1
    8    16     9 1
    9    25     5 1
   10    25    16 1
   11    26    10 1
   12    26    17 1
   13    27    18 1
   14    28    14 1
   15    28    19 1
   16    29    12 1
   17    30    13 1
   18    31    24 1
   19    32     1 1
   20    32    25 1
   21    33    21 1
   22    33    26 1
   23    34    22 1
   24    34    27 1
   25    35    23 1
   26    35    28 1
   27    36    12 1
   28    36    24 1
   29    37    13 1
   30    37    15 1
   31    38    31 1
   32    39    20 1
   33    39    32 1
   34    40     2 1
   35    40    33 1
   36    41     3 1
   37    41    34 1
   38    42     4 1
   39    42    35 1
   40    43    38 1
   41    44     5 1
   42    44    17 1
   43    44    39 1
   44    45    10 1
   45    45    18 1
   46    45    40 1
   47    46    19 1
   48    46    41 1
   49    47    14 1
   50    47    16 1
   51    47    42 1
   52    48    38 1
   53    49    48 1
   54    50    49 1
   55    51    50 1
   56    52    51 1
   57    53    51 1
   58    54    53 1
   59    55    54 1
   60    56    55 1
   61    57    56 1
   62    58    56 1
   63    59    58 1
   64    60    59 1
   65    61    60 1
   66    62    61 1
   67    63    61 1
   68    64    27 1
   69    64    46 1
   70    65     5 1
   71    65    10 1
   72    65    64 1
   73    65    14 1
   74    66    23 1
   75    67    23 1
   76    68    23 1
   77    69    22 1
   78    70    22 1
   79    71    22 1
   80    72    21 1
   81    73    21 1
   82    74    21 1
   83    75    20 1
   84    76    20 1
   85    77    20 1
   86    78    15 1
   87    79    15 1
   88    80    15 1
   89    81     8 1
   90    82     8 1
   91    83     8 1
   92    84     7 1
   93    85     7 1
   94    86     6 1
   95    87     6 1
   96    88     3 1
   97    89     3 1
   98    90     1 1
   99    91     1 1
  100    92    63 1
  101    93    63 1
  102    94    63 1
  103    95    62 1
  104    96    62 1
  105    97    62 1
  106    98    60 1
  107    99    60 1
  108   100    59 1
  109   101    59 1
  110   102    58 1
  111   103    58 1
  112   104    57 1
  113   105    57 1
  114   106    57 1
  115   107    55 1
  116   108    55 1
  117   109    54 1
  118   110    54 1
  119   111    53 1
  120   112    53 1
  121   113    19 1
  122   114    18 1
  123   115    17 1
  124   116     9 1
  125   117     2 1
  126   118    52 1
  127   119    52 1
  128   120    52 1
  129   121    51 1
  130   122    50 1
  131   123    50 1
  132   124    49 1
  133   125    49 1
  134   126    48 1
  135   127    48 1
  136   128    43 1
  137   129    43 1
  138   130    43 1
  139   131    39 1
  140   132    32 1
  141   133    31 1
  142   134    61 1
  143   135    56 1
  144   136    24 1
  145   137    24 1
  146   139   138 1
  147   140   139 1
  148   141   140 1
  149   142   140 1
  150   143   142 1
  151   144   138 1
  152   144   143 1
  153   145   144 1
  154   146   145 1
  155   147   146 1
  156   148   147 1
  157   149   148 1
  158   150   149 1
  159   151   150 1
  160   152   151 1
  161   153   152 1
  162   154   138 1
  163   155   138 1
  164   156   143 1
  165   157   147 1
  166   158   151 1
  167   160   159 1
  168   161   160 1
  169   162   161 1
  170   163   161 1
  171   164   163 1
  172   165   159 1
  173   165   164 1
  174   166   165 1
  175   167   166 1
  176   168   167 1
  177   169   168 1
  178   170   169 1
  179   171   170 1
  180   172   171 1
  181   173   172 1
  182   174   153 1
  183   174   173 1
  184   175   159 1
  185   176   159 1
  186   177   164 1
  187   178   168 1
  188   179   172 1
  189   180   179 1
  190   181   179 1
  191   182   179 1
  192   183   178 1
  193   184   178 1
  194   185   178 1
  195   186   177 1
  196   187   177 1
  197   188   177 1
  198   189   176 1
  199   190   176 1
  200   191   176 1
  201   192   175 1
  202   193   175 1
  203   194   175 1
  204   195   160 1
  205   196   160 1
  206   197   158 1
  207   198   158 1
  208   199   158 1
  209   200   157 1
  210   201   157 1
  211   202   157 1
  212   203   156 1
  213   204   156 1
  214   205   156 1
  215   206   155 1
  216   207   155 1
  217   208   155 1
  218   209   154 1
  219   210   154 1
  220   211   154 1
  221   212   141 1
  222   213   146 1
  223   214   145 1
  224   215   142 1
  225   216   142 1
  226   217   174 1
  227   218   173 1
  228   219   171 1
  229   220   170 1
  230   221   169 1
  231   222   140 1
  232   223   167 1
  233   224   166 1
  234   225   165 1
  235   226   163 1
  236   227   161 1
  237   228   139 1
  238   229   139 1
  239   230   153 1
  240   231   152 1
  241   232   150 1
  242   233   149 1
  243   234   148 1
  244   235   162 1
  245   65    153 1
  246   65    174 1
@<TRIPOS>SUBSTRUCTURE
      1 CLA               1 ****               0 ****  **** 
      2 LUT             138 ****               0 ****  **** 
