@<TRIPOS>MOLECULE
Cpptraj generated mol2 file.
  235   246     2     0     0
SMALL
USER_CHARGES


@<TRIPOS>ATOM
      1 CAA        79.2463   59.1898   33.7985 a2         1 CLA     -0.055900
      2 CAB        79.1017   62.4475   42.9655 c8         1 CLA     -0.148500
      3 CAC        72.4161   58.1608   42.1930 a2         1 CLA     -0.012600
      4 CAD        75.2329   56.2804   34.8318 ck         1 CLA      0.398800
      5 NA         78.3530   59.2851   37.2441 ns         1 CLA     -0.225500
      6 CBA        80.3709   59.0810   32.7720 a2         1 CLA     -0.135000
      7 CBB        80.2621   62.4809   43.6971 c0         1 CLA     -0.395200
      8 CBC        72.5935   56.6633   42.1487 a3         1 CLA     -0.037700
      9 CBD        76.6450   56.9351   34.5137 a1         1 CLA     -0.053900
     10 NB         78.0937   60.6820   39.9233 nm         1 CLA     -0.295700
     11 OBD        74.6466   55.4768   34.0852 o2         1 CLA     -0.494600
     12 CGA        80.8589   57.7306   32.5051 c4         1 CLA      0.827000
     13 CGD        77.6402   55.8481   34.2506 c4         1 CLA      0.655300
     14 ND         75.5581   58.3092   37.6870 nm         1 CLA     -0.291600
     15 CED        78.9564   54.0314   35.1054 a3         1 CLA      0.005400
     16 CHA        76.9869   57.8298   35.7428 cs         1 CLA     -0.123800
     17 CHB        79.9744   60.7309   38.3244 aa         1 CLA     -0.291900
     18 CHC        76.6780   60.9236   41.8659 aa         1 CLA     -0.090400
     19 CHD        73.6114   58.0995   39.2166 aa         1 CLA     -0.052000
     20 CMA        81.7699   58.7834   36.6747 a3         1 CLA     -0.230700
     21 CMB        81.4682   62.2104   40.6756 a3         1 CLA     -0.180800
     22 CMC        74.1512   60.1838   43.8274 a3         1 CLA     -0.134000
     23 CMD        72.4025   56.4204   36.9630 a3         1 CLA     -0.141100
     24 C1         82.0653   55.8955   33.2929 a2         1 CLA      0.023000
     25 C1A        78.1855   58.5650   36.0607 ac         1 CLA     -0.015100
     26 C1B        79.3889   61.0620   39.5294 cr         1 CLA      0.054700
     27 C1C        75.5261   60.1269   41.4921 cn         1 CLA     -0.005600
     28 C1D        74.2294   57.8770   37.9673 ap         1 CLA     -0.047300
     29 O1A        80.6259   57.0110   31.5477 o2         1 CLA     -0.610800
     30 O1D        78.3069   55.8728   33.2388 o2         1 CLA     -0.558200
     31 C2         82.7869   55.3957   34.5554 c8         1 CLA     -0.325100
     32 C2A        79.4865   58.6130   35.2233 a1         1 CLA      0.098600
     33 C2B        80.0461   61.7523   40.6321 cb         1 CLA      0.088500
     34 C2C        74.3607   59.8195   42.3330 cb         1 CLA      0.053700
     35 C2D        73.7534   57.0377   36.9557 cb         1 CLA      0.058900
     36 O2A        81.6302   57.3003   33.5028 o1         1 CLA     -0.437200
     37 O2D        77.8188   54.9812   35.2604 o1         1 CLA     -0.357600
     38 C3         83.8056   54.5484   34.6134 c5         1 CLA      0.031200
     39 C3A        80.4326   59.4835   36.1269 a1         1 CLA      0.166800
     40 C3B        79.0195   61.8909   41.6155 cb         1 CLA      0.035000
     41 C3C        73.6487   58.8911   41.6237 cb         1 CLA     -0.089900
     42 C3D        74.8232   56.8934   36.0679 cb         1 CLA     -0.035900
     43 C4         83.5115   53.0236   34.9340 a3         1 CLA     -0.053300
     44 C4A        79.5375   59.8933   37.2790 ac         1 CLA      0.001800
     45 C4B        77.8556   61.1973   41.1482 cn         1 CLA     -0.020900
     46 C4C        74.1769   58.8260   40.2765 cr         1 CLA     -0.044400
     47 C4D        75.8929   57.6956   36.5533 c6         1 CLA     -0.046000
     48 C5         85.2373   54.9941   34.4295 a2         1 CLA     -0.070400
     49 C6         85.6002   56.3665   35.1928 a2         1 CLA      0.043900
     50 C7         85.6051   56.1940   36.7341 a2         1 CLA     -0.150000
     51 C8         87.0415   56.2436   37.3332 a1         1 CLA      0.064200
     52 C9         87.8422   54.9667   36.8083 a3         1 CLA     -0.259300
     53 C10        87.1195   56.3017   38.9033 a2         1 CLA     -0.071900
     54 C11        86.6851   57.5697   39.6244 a2         1 CLA      0.014500
     55 C12        86.8408   57.5027   41.1440 a2         1 CLA     -0.112100
     56 C13        86.2533   58.7162   41.8750 a1         1 CLA      0.089200
     57 C14        87.0505   60.0070   41.6086 a3         1 CLA     -0.239100
     58 C15        86.3049   58.2258   43.4029 a2         1 CLA     -0.102200
     59 C16        85.7720   59.1692   44.4137 a2         1 CLA      0.023900
     60 C17        86.0728   58.7015   45.8802 a2         1 CLA     -0.105700
     61 C18        85.6721   59.5480   47.0769 a1         1 CLA      0.206800
     62 C19        84.1091   59.6464   47.3907 a3         1 CLA     -0.280100
     63 C20        86.4319   59.0309   48.3472 a3         1 CLA     -0.280100
     64 NC         75.3405   59.4946   40.2849 nx         1 CLA     -0.309200
     65 MG         76.7480   59.6147   38.6919 mg         1 CLA      0.895000
     66 HMD3       72.3831   55.6431   36.1966 dc         1 CLA      0.064300
     67 HMD2       72.2450   55.9305   37.9229 dc         1 CLA      0.064300
     68 HMD1       71.6761   57.2363   36.8200 dc         1 CLA      0.064300
     69 HMC3       74.6395   59.4612   44.4522 dc         1 CLA      0.052100
     70 HMC2       74.5521   61.1788   44.0631 dc         1 CLA      0.052100
     71 HMC1       73.1242   60.1508   44.0530 dc         1 CLA      0.052100
     72 HMB3       81.8575   62.8031   41.5415 dc         1 CLA      0.063600
     73 HMB2       82.0277   61.3010   40.6172 dc         1 CLA      0.063600
     74 HMB1       81.6547   62.8624   39.8781 dc         1 CLA      0.063600
     75 HMA3       82.1368   58.2181   35.8351 dc         1 CLA      0.058300
     76 HMA2       82.4164   59.6311   36.9515 dc         1 CLA      0.058300
     77 HMA1       81.4762   58.1471   37.5671 dc         1 CLA      0.058300
     78 HED3       79.8773   54.5813   35.2463 dc         1 CLA      0.079300
     79 HED2       78.9774   53.1553   35.8486 dc         1 CLA      0.079300
     80 HED1       78.8352   53.5255   34.1855 dc         1 CLA      0.079300
     81 HBC3       73.6224   56.3526   42.3744 dc         1 CLA      0.016300
     82 HBC2       72.0350   56.2443   43.0275 dc         1 CLA      0.016300
     83 HBC1       72.3920   56.1601   41.1969 dc         1 CLA      0.016300
     84 HBB2       80.1941   62.9174   44.7042 da         1 CLA      0.183000
     85 HBB1       81.1926   62.0141   43.3705 da         1 CLA      0.183000
     86 HBA2       80.0618   59.4900   31.8128 dc         1 CLA      0.029400
     87 HBA1       81.1350   59.6787   33.1285 dc         1 CLA      0.029400
     88 HAC2       72.2215   58.3279   43.2430 dc         1 CLA      0.029300
     89 HAC1       71.5283   58.4075   41.5557 dc         1 CLA      0.029300
     90 HAA2       78.4416   58.5894   33.3630 dc         1 CLA      0.028700
     91 HAA1       78.9217   60.2033   34.0104 dc         1 CLA      0.028700
     92 H203       87.5148   59.0817   48.1438 dc         1 CLA      0.065600
     93 H202       86.2764   59.6258   49.2452 dc         1 CLA      0.065600
     94 H201       86.1856   58.0015   48.5330 dc         1 CLA      0.065600
     95 H193       83.6157   58.6364   47.4970 dc         1 CLA      0.065600
     96 H192       84.0793   60.2380   48.2918 dc         1 CLA      0.065600
     97 H191       83.6404   60.1817   46.5475 dc         1 CLA      0.065600
     98 H172       85.5616   57.7604   46.1056 dc         1 CLA      0.027600
     99 H171       87.1744   58.5740   45.9763 dc         1 CLA      0.027600
    100 H162       86.1939   60.2158   44.3513 dc         1 CLA      0.002900
    101 H161       84.6757   59.0082   44.2743 dc         1 CLA      0.002900
    102 H152       85.7237   57.3330   43.4972 dc         1 CLA      0.029100
    103 H151       87.3600   57.8356   43.6330 dc         1 CLA      0.029100
    104 H143       86.7490   60.8094   42.2788 dc         1 CLA      0.063600
    105 H142       88.1018   59.9650   41.8614 dc         1 CLA      0.063600
    106 H141       86.9527   60.3045   40.5735 dc         1 CLA      0.063600
    107 H122       86.3008   56.5946   41.3335 dc         1 CLA      0.032500
    108 H121       87.8424   57.2539   41.5109 dc         1 CLA      0.032500
    109 H112       87.2927   58.3470   39.1120 dc         1 CLA      0.006600
    110 H111       85.6006   57.7093   39.3798 dc         1 CLA      0.006600
    111 H102       86.5313   55.4540   39.2577 dc         1 CLA      0.024100
    112 H101       88.1580   56.1726   39.2587 dc         1 CLA      0.024100
    113 HHD        72.6154   57.5900   39.4772 da         1 CLA      0.174300
    114 HHC        76.5824   61.4543   42.7986 da         1 CLA      0.136800
    115 HHB        81.0011   61.1225   38.1715 da         1 CLA      0.138300
    116 HBD        76.4733   57.5837   33.6787 dc         1 CLA      0.107700
    117 HAB        78.2289   62.9352   43.3851 da         1 CLA      0.155200
    118 H93        88.8971   55.0891   37.0542 dc         1 CLA      0.069500
    119 H92        87.4669   54.0291   37.2102 dc         1 CLA      0.069500
    120 H91        87.7949   54.8967   35.7133 dc         1 CLA      0.069500
    121 H8         87.5791   57.0897   36.9020 dc         1 CLA      0.029300
    122 H72        85.0226   57.0773   37.0265 dc         1 CLA      0.044400
    123 H71        85.1645   55.2587   37.0433 dc         1 CLA      0.044400
    124 H62        86.6038   56.6666   34.7713 dc         1 CLA      0.015600
    125 H61        84.9287   57.1565   34.9851 dc         1 CLA      0.015600
    126 H52        85.8594   54.1408   34.6375 dc         1 CLA      0.033200
    127 H51        85.3986   55.2466   33.3689 dc         1 CLA      0.033200
    128 H43        84.0827   52.7100   35.7979 dc         1 CLA      0.037000
    129 H42        82.4658   52.9241   35.3950 dc         1 CLA      0.037000
    130 H41        83.7168   52.2961   34.0971 dc         1 CLA      0.037000
    131 H3A        80.7626   60.3875   35.5393 dc         1 CLA      0.041100
    132 H2A        79.8043   57.5604   35.2492 dc         1 CLA      0.083100
    133 H2         82.5757   55.8672   35.5608 da         1 CLA      0.180900
    134 H18        86.1349   60.5581   46.9185 dc         1 CLA     -0.003900
    135 H13        85.2055   58.8945   41.6584 dc         1 CLA      0.019700
    136 H12        81.3148   55.0709   33.0588 dc         1 CLA      0.120400
    137 H11        82.7811   55.9287   32.4906 dc         1 CLA      0.120400
    138 C1         68.8461   61.3404   49.5354 Z1         2 LUT      0.509236
    139 C2         67.3717   61.1771   50.0551 Z2         2 LUT     -0.434695
    140 C3         66.6421   62.4365   50.4398 Z3         2 LUT      0.437453
    141 O3         66.8641   62.8137   51.7904 S1         2 LUT     -0.547129
    142 C4         67.1243   63.6288   49.6448 Z4         2 LUT     -0.468603
    143 C5         67.9373   63.3670   48.4043 Z5         2 LUT      0.279246
    144 C6         68.7493   62.2886   48.3034 Z6         2 LUT     -0.305473
    145 C7         69.3391   61.8163   47.0333 Z7         2 LUT      0.069402
    146 C8         70.2190   62.5865   46.2924 Z8         2 LUT     -0.191631
    147 C9         70.8467   62.2728   44.9538 Z9         2 LUT      0.196698
    148 C10        71.7289   63.2059   44.3486 Y1         2 LUT     -0.208611
    149 C11        72.5164   63.0502   43.1145 Y2         2 LUT      0.030784
    150 C12        73.6750   63.6608   42.7769 Y3         2 LUT     -0.220316
    151 C13        74.5861   63.5180   41.6114 Y4         2 LUT      0.215937
    152 C14        75.7332   64.3106   41.6318 Y5         2 LUT     -0.185793
    153 C15        76.8116   64.5373   40.6330 Y6         2 LUT     -0.057835
    154 C16        69.3875   59.8614   49.1655 Y7         2 LUT     -0.405615
    155 C17        69.8442   61.8856   50.6788 Y7         2 LUT     -0.405615
    156 C18        67.4335   64.2430   47.2405 Y9         2 LUT     -0.369639
    157 C19        70.4540   60.9614   44.2658 W1         2 LUT     -0.333362
    158 C20        74.0432   62.7961   40.3213 W2         2 LUT     -0.323439
    159 C21        87.9902   65.9576   34.4829 Z1         2 LUT      0.406104
    160 C22        88.5968   65.3786   33.2096 Z2         2 LUT     -0.404965
    161 C23        88.7242   66.3362   31.9865 Z3         2 LUT      0.391255
    162 O23        88.9675   65.5434   30.8279 S1         2 LUT     -0.528210
    163 C24        87.4418   67.1404   31.8272 W6         2 LUT     -0.258361
    164 C25        86.4639   67.2808   32.7026 Z5         2 LUT      0.133546
    165 C26        86.5138   66.5759   34.1056 W8         2 LUT     -0.147008
    166 C27        85.7922   67.2875   35.2341 Z7         2 LUT      0.023843
    167 C28        84.7293   66.7669   35.9449 Z8         2 LUT     -0.216987
    168 C29        84.2154   67.0558   37.2560 Z9         2 LUT      0.206524
    169 C30        83.0839   66.3010   37.6090 Y1         2 LUT     -0.215556
    170 C31        82.2937   66.5561   38.7807 Y2         2 LUT      0.025142
    171 C32        81.2094   65.8450   38.9473 Y3         2 LUT     -0.212209
    172 C33        80.2727   65.9590   40.0424 Y4         2 LUT      0.240937
    173 C34        79.0785   65.2113   39.9700 Y5         2 LUT     -0.218862
    174 C35        77.9780   65.1767   40.9469 Y6         2 LUT     -0.023547
    175 C36        88.9078   67.0640   35.0602 Y7         2 LUT     -0.393485
    176 C37        88.1136   64.8247   35.4858 Y7         2 LUT     -0.393485
    177 C38        85.0937   67.6675   32.2939 Y9         2 LUT     -0.387526
    178 C39        84.8426   68.2500   38.0041 W1         2 LUT     -0.322618
    179 C40        80.7256   66.7296   41.3353 W2         2 LUT     -0.358472
    180 H403       81.7057   66.4501   41.6302 R7         2 LUT      0.097720
    181 H402       80.6895   67.8221   41.1847 R7         2 LUT      0.097720
    182 H401       80.1592   66.5365   42.1790 R7         2 LUT      0.097720
    183 H393       84.5342   69.1755   37.5787 R4         2 LUT      0.082505
    184 H392       84.4578   68.2221   39.0094 R4         2 LUT      0.082505
    185 H391       85.9947   68.2302   38.0191 R4         2 LUT      0.082505
    186 H383       84.7020   68.3231   33.1074 R1         2 LUT      0.104030
    187 H382       85.2600   68.2396   31.3956 R1         2 LUT      0.104030
    188 H381       84.5151   66.7915   32.0848 R1         2 LUT      0.104030
    189 H373       87.6057   63.9277   35.0531 T4         2 LUT      0.089537
    190 H372       89.1354   64.5749   35.8467 T4         2 LUT      0.089537
    191 H371       87.5582   64.9894   36.4363 T4         2 LUT      0.089537
    192 H363       88.4706   67.5781   35.9492 T4         2 LUT      0.089537
    193 H362       89.9067   66.6995   35.3402 T4         2 LUT      0.089537
    194 H361       89.0396   67.8560   34.2799 T4         2 LUT      0.089537
    195 H222       89.6989   65.0542   33.4446 U2         2 LUT      0.127376
    196 H221       87.8974   64.5788   32.8455 U2         2 LUT      0.127376
    197 H203       73.2333   63.3798   39.8598 R7         2 LUT      0.087068
    198 H202       74.8474   62.6504   39.5827 R7         2 LUT      0.087068
    199 H201       73.6510   61.8350   40.6533 R7         2 LUT      0.087068
    200 H193       70.9506   60.0860   44.5241 R4         2 LUT      0.089716
    201 H192       69.3968   60.6803   44.4321 R4         2 LUT      0.089716
    202 H191       70.5280   61.0492   43.1615 R4         2 LUT      0.089716
    203 H183       66.6302   64.9486   47.4056 R1         2 LUT      0.094572
    204 H182       68.2304   64.8784   47.0057 R1         2 LUT      0.094572
    205 H181       67.1624   63.6520   46.3934 R1         2 LUT      0.094572
    206 H173       69.7240   61.5067   51.7442 T4         2 LUT      0.093752
    207 H172       70.8519   61.6760   50.2661 T4         2 LUT      0.093752
    208 H171       69.7177   63.0390   50.6981 T4         2 LUT      0.093752
    209 H163       68.7697   59.3051   48.4969 T4         2 LUT      0.093752
    210 H162       70.3702   59.9190   48.7582 T4         2 LUT      0.093752
    211 H161       69.4568   59.1881   49.9813 T4         2 LUT      0.093752
    212 HO3        66.2328   62.3926   52.4461 Q1         2 LUT      0.300121
    213 H8         70.5899   63.5446   46.6846 U7         2 LUT      0.080784
    214 H7         69.0351   60.8537   46.6636 U6         2 LUT      0.042190
    215 H42        66.3370   64.3343   49.4952 U5         2 LUT      0.145166
    216 H41        67.7341   64.1492   50.3437 U5         2 LUT      0.145166
    217 H35        78.1613   65.6038   41.9976 T3         2 LUT      0.077919
    218 H34        78.9930   64.6420   39.0413 T2         2 LUT      0.073626
    219 H32        80.9145   65.1034   38.2320 T1         2 LUT      0.092510
    220 H31        82.6597   67.1388   39.6113 U9         2 LUT      0.070048
    221 H30        82.7756   65.5741   36.9198 U8         2 LUT      0.085442
    222 H3         65.5119   62.3812   50.2780 U3         2 LUT     -0.031596
    223 H28        84.3403   65.9278   35.3724 U7         2 LUT      0.084728
    224 H27        86.3557   67.8489   35.8630 U6         2 LUT      0.087291
    225 H26        85.9292   65.6240   33.9743 Q6         2 LUT      0.075325
    226 H24        87.3337   67.4389   30.7789 Q5         2 LUT      0.094482
    227 H23        89.5852   67.0488   32.2051 U3         2 LUT     -0.024869
    228 H22        66.6993   60.8425   49.2733 U2         2 LUT      0.127376
    229 H21        67.2640   60.4652   50.9087 U2         2 LUT      0.127376
    230 H15        76.7264   64.1135   39.6225 T3         2 LUT      0.093200
    231 H14        75.8693   64.8107   42.5465 T2         2 LUT      0.068865
    232 H12        74.0098   64.3323   43.5221 T1         2 LUT      0.095507
    233 H11        72.0586   62.3823   42.3357 U9         2 LUT      0.068930
    234 H10        71.8227   64.1641   44.9229 U8         2 LUT      0.083911
    235 H1         89.0449   65.9541   29.9755 Q1         2 LUT      0.297311
@<TRIPOS>BOND
    1     6     1 1
    2     7     2 1
    3     8     3 1
    4     9     4 1
    5    11     4 1
    6    12     6 1
    7    13     9 1
    8    16     9 1
    9    25     5 1
   10    25    16 1
   11    26    10 1
   12    26    17 1
   13    27    18 1
   14    28    14 1
   15    28    19 1
   16    29    12 1
   17    30    13 1
   18    31    24 1
   19    32     1 1
   20    32    25 1
   21    33    21 1
   22    33    26 1
   23    34    22 1
   24    34    27 1
   25    35    23 1
   26    35    28 1
   27    36    12 1
   28    36    24 1
   29    37    13 1
   30    37    15 1
   31    38    31 1
   32    39    20 1
   33    39    32 1
   34    40     2 1
   35    40    33 1
   36    41     3 1
   37    41    34 1
   38    42     4 1
   39    42    35 1
   40    43    38 1
   41    44     5 1
   42    44    17 1
   43    44    39 1
   44    45    10 1
   45    45    18 1
   46    45    40 1
   47    46    19 1
   48    46    41 1
   49    47    14 1
   50    47    16 1
   51    47    42 1
   52    48    38 1
   53    49    48 1
   54    50    49 1
   55    51    50 1
   56    52    51 1
   57    53    51 1
   58    54    53 1
   59    55    54 1
   60    56    55 1
   61    57    56 1
   62    58    56 1
   63    59    58 1
   64    60    59 1
   65    61    60 1
   66    62    61 1
   67    63    61 1
   68    64    27 1
   69    64    46 1
   70    65     5 1
   71    65    10 1
   72    65    64 1
   73    65    14 1
   74    66    23 1
   75    67    23 1
   76    68    23 1
   77    69    22 1
   78    70    22 1
   79    71    22 1
   80    72    21 1
   81    73    21 1
   82    74    21 1
   83    75    20 1
   84    76    20 1
   85    77    20 1
   86    78    15 1
   87    79    15 1
   88    80    15 1
   89    81     8 1
   90    82     8 1
   91    83     8 1
   92    84     7 1
   93    85     7 1
   94    86     6 1
   95    87     6 1
   96    88     3 1
   97    89     3 1
   98    90     1 1
   99    91     1 1
  100    92    63 1
  101    93    63 1
  102    94    63 1
  103    95    62 1
  104    96    62 1
  105    97    62 1
  106    98    60 1
  107    99    60 1
  108   100    59 1
  109   101    59 1
  110   102    58 1
  111   103    58 1
  112   104    57 1
  113   105    57 1
  114   106    57 1
  115   107    55 1
  116   108    55 1
  117   109    54 1
  118   110    54 1
  119   111    53 1
  120   112    53 1
  121   113    19 1
  122   114    18 1
  123   115    17 1
  124   116     9 1
  125   117     2 1
  126   118    52 1
  127   119    52 1
  128   120    52 1
  129   121    51 1
  130   122    50 1
  131   123    50 1
  132   124    49 1
  133   125    49 1
  134   126    48 1
  135   127    48 1
  136   128    43 1
  137   129    43 1
  138   130    43 1
  139   131    39 1
  140   132    32 1
  141   133    31 1
  142   134    61 1
  143   135    56 1
  144   136    24 1
  145   137    24 1
  146   139   138 1
  147   140   139 1
  148   141   140 1
  149   142   140 1
  150   143   142 1
  151   144   138 1
  152   144   143 1
  153   145   144 1
  154   146   145 1
  155   147   146 1
  156   148   147 1
  157   149   148 1
  158   150   149 1
  159   151   150 1
  160   152   151 1
  161   153   152 1
  162   154   138 1
  163   155   138 1
  164   156   143 1
  165   157   147 1
  166   158   151 1
  167   160   159 1
  168   161   160 1
  169   162   161 1
  170   163   161 1
  171   164   163 1
  172   165   159 1
  173   165   164 1
  174   166   165 1
  175   167   166 1
  176   168   167 1
  177   169   168 1
  178   170   169 1
  179   171   170 1
  180   172   171 1
  181   173   172 1
  182   174   153 1
  183   174   173 1
  184   175   159 1
  185   176   159 1
  186   177   164 1
  187   178   168 1
  188   179   172 1
  189   180   179 1
  190   181   179 1
  191   182   179 1
  192   183   178 1
  193   184   178 1
  194   185   178 1
  195   186   177 1
  196   187   177 1
  197   188   177 1
  198   189   176 1
  199   190   176 1
  200   191   176 1
  201   192   175 1
  202   193   175 1
  203   194   175 1
  204   195   160 1
  205   196   160 1
  206   197   158 1
  207   198   158 1
  208   199   158 1
  209   200   157 1
  210   201   157 1
  211   202   157 1
  212   203   156 1
  213   204   156 1
  214   205   156 1
  215   206   155 1
  216   207   155 1
  217   208   155 1
  218   209   154 1
  219   210   154 1
  220   211   154 1
  221   212   141 1
  222   213   146 1
  223   214   145 1
  224   215   142 1
  225   216   142 1
  226   217   174 1
  227   218   173 1
  228   219   171 1
  229   220   170 1
  230   221   169 1
  231   222   140 1
  232   223   167 1
  233   224   166 1
  234   225   165 1
  235   226   163 1
  236   227   161 1
  237   228   139 1
  238   229   139 1
  239   230   153 1
  240   231   152 1
  241   232   150 1
  242   233   149 1
  243   234   148 1
  244   235   162 1
  245   65    153 1
  246   65    174 1
@<TRIPOS>SUBSTRUCTURE
      1 CLA               1 ****               0 ****  **** 
      2 LUT             138 ****               0 ****  **** 
