@<TRIPOS>MOLECULE
Cpptraj generated mol2 file.
  235   246     2     0     0
SMALL
USER_CHARGES


@<TRIPOS>ATOM
      1 CAA        80.0899   58.3864   34.7313 a2         1 CLA     -0.055900
      2 CAB        79.6182   61.6615   43.6762 c8         1 CLA     -0.148500
      3 CAC        72.6763   57.7497   42.8982 a2         1 CLA     -0.012600
      4 CAD        75.7603   55.6146   35.5637 ck         1 CLA      0.398800
      5 NA         78.8566   58.4872   38.0129 ns         1 CLA     -0.225500
      6 CBA        81.1636   58.0798   33.6794 a2         1 CLA     -0.135000
      7 CBB        80.6855   61.7841   44.5105 c0         1 CLA     -0.395200
      8 CBC        72.9759   56.2823   43.1431 a3         1 CLA     -0.037700
      9 CBD        77.2075   56.2024   35.2943 a1         1 CLA     -0.053900
     10 NB         78.5286   59.9719   40.5961 nm         1 CLA     -0.295700
     11 OBD        75.1942   54.7969   34.8216 o2         1 CLA     -0.494600
     12 CGA        81.4539   56.6291   33.4014 c4         1 CLA      0.827000
     13 CGD        78.2366   55.1102   35.0615 c4         1 CLA      0.655300
     14 ND         76.0264   57.7051   38.3925 nm         1 CLA     -0.291600
     15 CED        79.3250   53.2335   35.9873 a3         1 CLA      0.005400
     16 CHA        77.5446   57.0985   36.4815 cs         1 CLA     -0.123800
     17 CHB        80.5913   59.6717   39.1739 aa         1 CLA     -0.291900
     18 CHC        77.0463   60.4682   42.5386 aa         1 CLA     -0.090400
     19 CHD        74.1323   57.4787   39.9596 aa         1 CLA     -0.052000
     20 CMA        82.2769   57.4983   37.6647 a3         1 CLA     -0.230700
     21 CMB        81.9718   61.3456   41.2441 a3         1 CLA     -0.180800
     22 CMC        74.6271   59.7682   44.5852 a3         1 CLA     -0.134000
     23 CMD        73.0092   55.5271   37.6793 a3         1 CLA     -0.141100
     24 C1         82.4755   54.5956   34.0649 a2         1 CLA      0.023000
     25 C1A        78.7754   57.7632   36.8925 ac         1 CLA     -0.015100
     26 C1B        79.8655   60.1919   40.2671 cr         1 CLA      0.054700
     27 C1C        75.9988   59.5776   42.2788 cn         1 CLA     -0.005600
     28 C1D        74.7689   57.1687   38.7641 ap         1 CLA     -0.047300
     29 O1A        81.1588   56.0195   32.3908 o2         1 CLA     -0.610800
     30 O1D        79.0168   55.0864   34.1231 o2         1 CLA     -0.558200
     31 C2         83.3699   54.0412   35.1449 c8         1 CLA     -0.325100
     32 C2A        80.0929   57.6778   36.1081 a1         1 CLA      0.098600
     33 C2B        80.5138   60.8845   41.3381 cb         1 CLA      0.088500
     34 C2C        74.8165   59.2932   43.1045 cb         1 CLA      0.053700
     35 C2D        74.3203   56.3259   37.6801 cb         1 CLA      0.058900
     36 O2A        82.2310   56.0252   34.3608 o1         1 CLA     -0.437200
     37 O2D        78.3119   54.2701   36.1188 o1         1 CLA     -0.357600
     38 C3         84.6375   53.6619   34.9361 c5         1 CLA      0.031200
     39 C3A        81.1052   58.3282   37.1487 a1         1 CLA      0.166800
     40 C3B        79.5657   61.0818   42.3047 cb         1 CLA      0.035000
     41 C3C        73.9594   58.4169   42.3852 cb         1 CLA     -0.089900
     42 C3D        75.3617   56.2462   36.7772 cb         1 CLA     -0.035900
     43 C4         84.9344   52.1674   34.8552 a3         1 CLA     -0.053300
     44 C4A        80.1527   58.8905   38.1590 ac         1 CLA      0.001800
     45 C4B        78.2990   60.5469   41.8410 cn         1 CLA     -0.020900
     46 C4C        74.5976   58.1947   41.1225 cr         1 CLA     -0.044400
     47 C4D        76.3811   57.1515   37.2446 c6         1 CLA     -0.046000
     48 C5         85.7919   54.5944   35.0560 a2         1 CLA     -0.070400
     49 C6         86.3065   54.7980   36.4509 a2         1 CLA      0.043900
     50 C7         87.5070   55.7760   36.4687 a2         1 CLA     -0.150000
     51 C8         88.3221   55.7630   37.7665 a1         1 CLA      0.064200
     52 C9         88.9327   54.3628   37.8795 a3         1 CLA     -0.259300
     53 C10        87.6075   56.2705   39.0114 a2         1 CLA     -0.071900
     54 C11        88.4982   56.7952   40.1675 a2         1 CLA      0.014500
     55 C12        87.7677   57.2097   41.4660 a2         1 CLA     -0.112100
     56 C13        88.6296   58.0483   42.4543 a1         1 CLA      0.089200
     57 C14        89.7598   57.2328   43.1530 a3         1 CLA     -0.239100
     58 C15        87.8103   58.7617   43.5395 a2         1 CLA     -0.102200
     59 C16        88.6047   59.7710   44.4216 a2         1 CLA      0.023900
     60 C17        87.7467   60.5248   45.5078 a2         1 CLA     -0.105700
     61 C18        87.1069   59.5282   46.5928 a1         1 CLA      0.206800
     62 C19        88.0868   58.5824   47.3658 a3         1 CLA     -0.280100
     63 C20        86.3724   60.3779   47.6349 a3         1 CLA     -0.280100
     64 NC         75.8147   58.9472   41.0329 nx         1 CLA     -0.309200
     65 MG         77.1928   58.9251   39.4119 mg         1 CLA      0.895000
     66 HMD3       72.8113   54.8281   38.4588 dc         1 CLA      0.064300
     67 HMD2       72.2432   56.3369   37.6962 dc         1 CLA      0.064300
     68 HMD1       73.0655   55.0514   36.6946 dc         1 CLA      0.064300
     69 HMC3       73.6353   59.4979   44.8765 dc         1 CLA      0.052100
     70 HMC2       75.3171   59.3286   45.2819 dc         1 CLA      0.052100
     71 HMC1       74.6542   60.8905   44.6618 dc         1 CLA      0.052100
     72 HMB3       82.3852   61.4440   40.2823 dc         1 CLA      0.063600
     73 HMB2       82.0836   62.3702   41.5677 dc         1 CLA      0.063600
     74 HMB1       82.6187   60.7167   41.8024 dc         1 CLA      0.063600
     75 HMA3       82.9677   58.0970   38.1557 dc         1 CLA      0.058300
     76 HMA2       81.8177   56.7334   38.2711 dc         1 CLA      0.058300
     77 HMA1       82.8119   57.0893   36.7710 dc         1 CLA      0.058300
     78 HED3       80.3743   53.6110   36.0599 dc         1 CLA      0.079300
     79 HED2       79.2933   52.5999   36.8586 dc         1 CLA      0.079300
     80 HED1       79.2601   52.6138   35.0806 dc         1 CLA      0.079300
     81 HBC3       72.8952   55.7499   42.1745 dc         1 CLA      0.016300
     82 HBC2       73.8924   56.0704   43.5919 dc         1 CLA      0.016300
     83 HBC1       72.2233   55.9137   43.7936 dc         1 CLA      0.016300
     84 HBB2       80.6319   62.4852   45.4078 da         1 CLA      0.183000
     85 HBB1       81.7090   61.5495   44.1264 da         1 CLA      0.183000
     86 HBA2       80.8144   58.6638   32.7735 dc         1 CLA      0.029400
     87 HBA1       82.0548   58.5203   33.9864 dc         1 CLA      0.029400
     88 HAC2       72.3246   58.1425   43.8692 dc         1 CLA      0.029300
     89 HAC1       71.8956   57.8881   42.1255 dc         1 CLA      0.029300
     90 HAA2       79.0991   58.1154   34.3821 dc         1 CLA      0.028700
     91 HAA1       80.0369   59.4544   35.0114 dc         1 CLA      0.028700
     92 H203       87.0672   60.9140   48.2749 dc         1 CLA      0.065600
     93 H202       85.7122   61.0623   47.1483 dc         1 CLA      0.065600
     94 H201       85.7612   59.6503   48.1430 dc         1 CLA      0.065600
     95 H193       89.0012   59.1042   47.4703 dc         1 CLA      0.065600
     96 H192       87.6100   58.3322   48.3014 dc         1 CLA      0.065600
     97 H191       88.2590   57.6560   46.7634 dc         1 CLA      0.065600
     98 H172       88.4898   61.1392   45.9154 dc         1 CLA      0.027600
     99 H171       87.0058   61.1583   45.0304 dc         1 CLA      0.027600
    100 H162       89.4208   59.4016   45.0469 dc         1 CLA      0.002900
    101 H161       88.9125   60.6341   43.8075 dc         1 CLA      0.002900
    102 H152       87.0098   59.3787   43.0296 dc         1 CLA      0.029100
    103 H151       87.3767   57.9146   44.1031 dc         1 CLA      0.029100
    104 H143       90.1375   56.4317   42.3914 dc         1 CLA      0.063600
    105 H142       90.4966   57.9466   43.5998 dc         1 CLA      0.063600
    106 H141       89.3806   56.6583   44.0126 dc         1 CLA      0.063600
    107 H122       86.9321   57.7484   41.1213 dc         1 CLA      0.032500
    108 H121       87.4128   56.3373   41.9670 dc         1 CLA      0.032500
    109 H112       89.2852   56.0061   40.4743 dc         1 CLA      0.006600
    110 H111       88.9272   57.6666   39.6968 dc         1 CLA      0.006600
    111 H102       86.9073   57.0510   38.6929 dc         1 CLA      0.024100
    112 H101       86.9888   55.4265   39.3456 dc         1 CLA      0.024100
    113 HHD        73.2486   56.9364   40.1292 da         1 CLA      0.174300
    114 HHC        77.0285   61.0255   43.4547 da         1 CLA      0.136800
    115 HHB        81.6922   59.8534   39.1484 da         1 CLA      0.138300
    116 HBD        77.2094   56.7917   34.4056 dc         1 CLA      0.107700
    117 HAB        78.6512   62.0646   43.9944 da         1 CLA      0.155200
    118 H93        89.6923   54.4059   38.6145 dc         1 CLA      0.069500
    119 H92        88.3136   53.6548   38.4520 dc         1 CLA      0.069500
    120 H91        89.3272   53.9812   36.9136 dc         1 CLA      0.069500
    121 H8         89.2614   56.3927   37.7482 dc         1 CLA      0.029300
    122 H72        88.1339   55.4289   35.7089 dc         1 CLA      0.044400
    123 H71        87.1387   56.7106   36.2642 dc         1 CLA      0.044400
    124 H62        85.5717   55.2121   37.1098 dc         1 CLA      0.015600
    125 H61        86.5262   53.8639   36.9456 dc         1 CLA      0.015600
    126 H52        86.6625   54.2976   34.4545 dc         1 CLA      0.033200
    127 H51        85.4976   55.5672   34.7197 dc         1 CLA      0.033200
    128 H43        84.2452   51.4884   35.2751 dc         1 CLA      0.037000
    129 H42        85.0621   51.8945   33.7285 dc         1 CLA      0.037000
    130 H41        85.9816   52.0281   35.2209 dc         1 CLA      0.037000
    131 H3A        81.5987   59.1316   36.5628 dc         1 CLA      0.041100
    132 H2A        80.3477   56.6197   36.1149 dc         1 CLA      0.083100
    133 H2         83.0293   53.8620   36.2268 da         1 CLA      0.180900
    134 H18        86.4586   58.7914   46.1683 dc         1 CLA     -0.003900
    135 H13        89.1430   58.7967   41.8104 dc         1 CLA      0.019700
    136 H12        81.5383   53.9943   33.8459 dc         1 CLA      0.120400
    137 H11        83.0445   54.6212   33.1164 dc         1 CLA      0.120400
    138 C1         70.4875   61.7413   49.9718 Z1         2 LUT      0.509236
    139 C2         69.2183   61.2739   50.7705 Z2         2 LUT     -0.434695
    140 C3         68.3073   62.3704   51.2330 Z3         2 LUT      0.437453
    141 O3         68.4433   62.5326   52.6235 S1         2 LUT     -0.547129
    142 C4         68.4520   63.5928   50.4415 Z4         2 LUT     -0.468603
    143 C5         68.9265   63.5011   49.0281 Z5         2 LUT      0.279246
    144 C6         69.9532   62.5930   48.7887 Z6         2 LUT     -0.305473
    145 C7         70.2908   61.9989   47.5036 Z7         2 LUT      0.069402
    146 C8         71.0680   62.5948   46.5820 Z8         2 LUT     -0.191631
    147 C9         71.6117   62.1833   45.3185 Z9         2 LUT      0.196698
    148 C10        72.6517   62.9907   44.8729 Y1         2 LUT     -0.208611
    149 C11        73.4052   62.8322   43.6111 Y2         2 LUT      0.030784
    150 C12        74.5080   63.6031   43.3553 Y3         2 LUT     -0.220316
    151 C13        75.4910   63.5199   42.2584 Y4         2 LUT      0.215937
    152 C14        76.6770   64.2001   42.3805 Y5         2 LUT     -0.185793
    153 C15        77.8689   64.1739   41.5800 Y6         2 LUT     -0.057835
    154 C16        71.2946   60.5609   49.5769 Y7         2 LUT     -0.405615
    155 C17        71.4145   62.4741   51.0387 Y7         2 LUT     -0.405615
    156 C18        67.9216   64.0494   48.0250 Y9         2 LUT     -0.369639
    157 C19        71.0840   61.0351   44.5799 W1         2 LUT     -0.333362
    158 C20        75.2210   62.6469   41.0682 W2         2 LUT     -0.323439
    159 C21        88.9818   65.1406   34.9063 Z1         2 LUT      0.406104
    160 C22        89.5582   64.4509   33.6486 Z2         2 LUT     -0.404965
    161 C23        89.6611   65.4359   32.4560 Z3         2 LUT      0.391255
    162 O23        89.9980   64.6883   31.3095 S1         2 LUT     -0.528210
    163 C24        88.3667   66.2989   32.3911 W6         2 LUT     -0.258361
    164 C25        87.3803   66.3381   33.2761 Z5         2 LUT      0.133546
    165 C26        87.5166   65.4562   34.4605 W8         2 LUT     -0.147008
    166 C27        86.7112   65.9843   35.6130 Z7         2 LUT      0.023843
    167 C28        85.5829   65.5822   36.2298 Z8         2 LUT     -0.216987
    168 C29        84.8462   66.2664   37.2820 Z9         2 LUT      0.206524
    169 C30        83.7174   65.6819   37.9045 Y1         2 LUT     -0.215556
    170 C31        82.9681   66.2125   39.0596 Y2         2 LUT      0.025142
    171 C32        81.9104   65.5104   39.4169 Y3         2 LUT     -0.212209
    172 C33        81.0217   65.7232   40.5390 Y4         2 LUT      0.240937
    173 C34        79.9125   64.8948   40.7192 Y5         2 LUT     -0.218862
    174 C35        78.9598   64.9410   41.7389 Y6         2 LUT     -0.023547
    175 C36        89.8780   66.3065   35.3586 Y7         2 LUT     -0.393485
    176 C37        89.0916   64.1233   36.0193 Y7         2 LUT     -0.393485
    177 C38        86.1156   67.1861   33.0674 Y9         2 LUT     -0.387526
    178 C39        85.3577   67.6128   37.6802 W1         2 LUT     -0.322618
    179 C40        81.1674   66.9439   41.3112 W2         2 LUT     -0.358472
    180 H403       82.1964   66.9459   41.7234 R7         2 LUT      0.097720
    181 H402       81.0023   67.8457   40.6967 R7         2 LUT      0.097720
    182 H401       80.5937   67.0663   42.2137 R7         2 LUT      0.097720
    183 H393       85.7065   68.1804   36.8219 R4         2 LUT      0.082505
    184 H392       84.6097   68.2018   38.0612 R4         2 LUT      0.082505
    185 H391       86.0292   67.6691   38.4882 R4         2 LUT      0.082505
    186 H383       85.2427   66.4886   33.0201 R1         2 LUT      0.104030
    187 H382       85.8750   67.8596   33.8842 R1         2 LUT      0.104030
    188 H381       86.0226   67.7304   32.0574 R1         2 LUT      0.104030
    189 H373       88.7718   64.5029   36.9825 T4         2 LUT      0.089537
    190 H372       88.5120   63.2809   35.6341 T4         2 LUT      0.089537
    191 H371       90.1511   64.0014   36.2088 T4         2 LUT      0.089537
    192 H363       89.4129   66.6760   36.2276 T4         2 LUT      0.089537
    193 H362       90.9612   66.0922   35.3956 T4         2 LUT      0.089537
    194 H361       89.6162   67.0939   34.6516 T4         2 LUT      0.089537
    195 H222       90.6484   64.2511   33.7313 U2         2 LUT      0.127376
    196 H221       88.8925   63.6703   33.3407 U2         2 LUT      0.127376
    197 H203       76.1211   62.3856   40.5132 R7         2 LUT      0.087068
    198 H202       74.6603   61.7886   41.3398 R7         2 LUT      0.087068
    199 H201       74.5644   63.0520   40.2979 R7         2 LUT      0.087068
    200 H193       71.7931   60.7526   43.8304 R4         2 LUT      0.089716
    201 H192       70.9842   60.1864   45.2676 R4         2 LUT      0.089716
    202 H191       70.0807   61.1786   44.0180 R4         2 LUT      0.089716
    203 H183       66.8324   64.0953   48.3443 R1         2 LUT      0.094572
    204 H182       68.0948   65.0855   47.8276 R1         2 LUT      0.094572
    205 H181       67.9226   63.5891   47.0434 R1         2 LUT      0.094572
    206 H173       72.3543   62.9181   50.6538 T4         2 LUT      0.093752
    207 H172       70.8332   63.2891   51.4733 T4         2 LUT      0.093752
    208 H171       71.6824   61.7376   51.8297 T4         2 LUT      0.093752
    209 H163       72.2707   60.8740   49.1830 T4         2 LUT      0.093752
    210 H162       71.3949   59.8290   50.4126 T4         2 LUT      0.093752
    211 H161       70.7777   59.8989   48.8569 T4         2 LUT      0.093752
    212 HO3        67.7802   63.1060   52.9803 Q1         2 LUT      0.300121
    213 H8         71.4778   63.5272   46.9119 U7         2 LUT      0.080784
    214 H7         69.8926   61.0222   47.2592 U6         2 LUT      0.042190
    215 H42        67.4721   64.0432   50.5308 U5         2 LUT      0.145166
    216 H41        69.0422   64.3378   50.9490 U5         2 LUT      0.145166
    217 H35        79.0839   65.5379   42.6208 T3         2 LUT      0.077919
    218 H34        79.8285   64.0270   40.0266 T2         2 LUT      0.073626
    219 H32        81.6761   64.7324   38.7525 T1         2 LUT      0.092510
    220 H31        83.2865   67.1442   39.6192 U9         2 LUT      0.070048
    221 H30        83.4351   64.6902   37.5079 U8         2 LUT      0.085442
    222 H3         67.3197   61.9868   51.0575 U3         2 LUT     -0.031596
    223 H28        85.1634   64.6339   35.8982 U7         2 LUT      0.084728
    224 H27        87.0896   67.0104   35.8923 U6         2 LUT      0.087291
    225 H26        86.9193   64.5790   34.1269 Q6         2 LUT      0.075325
    226 H24        88.2428   67.0277   31.5420 Q5         2 LUT      0.094482
    227 H23        90.5171   66.1309   32.6085 U3         2 LUT     -0.024869
    228 H22        68.6372   60.6795   50.0692 U2         2 LUT      0.127376
    229 H21        69.4935   60.7325   51.7026 U2         2 LUT      0.127376
    230 H15        77.8907   63.4559   40.7768 T3         2 LUT      0.093200
    231 H14        76.7220   64.9122   43.2351 T2         2 LUT      0.068865
    232 H12        74.7489   64.3344   44.1459 T1         2 LUT      0.095507
    233 H11        73.1232   62.0690   42.9289 U9         2 LUT      0.068930
    234 H10        73.0902   63.7501   45.4998 U8         2 LUT      0.083911
    235 H1         89.6027   65.0594   30.5328 Q1         2 LUT      0.297311
@<TRIPOS>BOND
    1     6     1 1
    2     7     2 1
    3     8     3 1
    4     9     4 1
    5    11     4 1
    6    12     6 1
    7    13     9 1
    8    16     9 1
    9    25     5 1
   10    25    16 1
   11    26    10 1
   12    26    17 1
   13    27    18 1
   14    28    14 1
   15    28    19 1
   16    29    12 1
   17    30    13 1
   18    31    24 1
   19    32     1 1
   20    32    25 1
   21    33    21 1
   22    33    26 1
   23    34    22 1
   24    34    27 1
   25    35    23 1
   26    35    28 1
   27    36    12 1
   28    36    24 1
   29    37    13 1
   30    37    15 1
   31    38    31 1
   32    39    20 1
   33    39    32 1
   34    40     2 1
   35    40    33 1
   36    41     3 1
   37    41    34 1
   38    42     4 1
   39    42    35 1
   40    43    38 1
   41    44     5 1
   42    44    17 1
   43    44    39 1
   44    45    10 1
   45    45    18 1
   46    45    40 1
   47    46    19 1
   48    46    41 1
   49    47    14 1
   50    47    16 1
   51    47    42 1
   52    48    38 1
   53    49    48 1
   54    50    49 1
   55    51    50 1
   56    52    51 1
   57    53    51 1
   58    54    53 1
   59    55    54 1
   60    56    55 1
   61    57    56 1
   62    58    56 1
   63    59    58 1
   64    60    59 1
   65    61    60 1
   66    62    61 1
   67    63    61 1
   68    64    27 1
   69    64    46 1
   70    65     5 1
   71    65    10 1
   72    65    64 1
   73    65    14 1
   74    66    23 1
   75    67    23 1
   76    68    23 1
   77    69    22 1
   78    70    22 1
   79    71    22 1
   80    72    21 1
   81    73    21 1
   82    74    21 1
   83    75    20 1
   84    76    20 1
   85    77    20 1
   86    78    15 1
   87    79    15 1
   88    80    15 1
   89    81     8 1
   90    82     8 1
   91    83     8 1
   92    84     7 1
   93    85     7 1
   94    86     6 1
   95    87     6 1
   96    88     3 1
   97    89     3 1
   98    90     1 1
   99    91     1 1
  100    92    63 1
  101    93    63 1
  102    94    63 1
  103    95    62 1
  104    96    62 1
  105    97    62 1
  106    98    60 1
  107    99    60 1
  108   100    59 1
  109   101    59 1
  110   102    58 1
  111   103    58 1
  112   104    57 1
  113   105    57 1
  114   106    57 1
  115   107    55 1
  116   108    55 1
  117   109    54 1
  118   110    54 1
  119   111    53 1
  120   112    53 1
  121   113    19 1
  122   114    18 1
  123   115    17 1
  124   116     9 1
  125   117     2 1
  126   118    52 1
  127   119    52 1
  128   120    52 1
  129   121    51 1
  130   122    50 1
  131   123    50 1
  132   124    49 1
  133   125    49 1
  134   126    48 1
  135   127    48 1
  136   128    43 1
  137   129    43 1
  138   130    43 1
  139   131    39 1
  140   132    32 1
  141   133    31 1
  142   134    61 1
  143   135    56 1
  144   136    24 1
  145   137    24 1
  146   139   138 1
  147   140   139 1
  148   141   140 1
  149   142   140 1
  150   143   142 1
  151   144   138 1
  152   144   143 1
  153   145   144 1
  154   146   145 1
  155   147   146 1
  156   148   147 1
  157   149   148 1
  158   150   149 1
  159   151   150 1
  160   152   151 1
  161   153   152 1
  162   154   138 1
  163   155   138 1
  164   156   143 1
  165   157   147 1
  166   158   151 1
  167   160   159 1
  168   161   160 1
  169   162   161 1
  170   163   161 1
  171   164   163 1
  172   165   159 1
  173   165   164 1
  174   166   165 1
  175   167   166 1
  176   168   167 1
  177   169   168 1
  178   170   169 1
  179   171   170 1
  180   172   171 1
  181   173   172 1
  182   174   153 1
  183   174   173 1
  184   175   159 1
  185   176   159 1
  186   177   164 1
  187   178   168 1
  188   179   172 1
  189   180   179 1
  190   181   179 1
  191   182   179 1
  192   183   178 1
  193   184   178 1
  194   185   178 1
  195   186   177 1
  196   187   177 1
  197   188   177 1
  198   189   176 1
  199   190   176 1
  200   191   176 1
  201   192   175 1
  202   193   175 1
  203   194   175 1
  204   195   160 1
  205   196   160 1
  206   197   158 1
  207   198   158 1
  208   199   158 1
  209   200   157 1
  210   201   157 1
  211   202   157 1
  212   203   156 1
  213   204   156 1
  214   205   156 1
  215   206   155 1
  216   207   155 1
  217   208   155 1
  218   209   154 1
  219   210   154 1
  220   211   154 1
  221   212   141 1
  222   213   146 1
  223   214   145 1
  224   215   142 1
  225   216   142 1
  226   217   174 1
  227   218   173 1
  228   219   171 1
  229   220   170 1
  230   221   169 1
  231   222   140 1
  232   223   167 1
  233   224   166 1
  234   225   165 1
  235   226   163 1
  236   227   161 1
  237   228   139 1
  238   229   139 1
  239   230   153 1
  240   231   152 1
  241   232   150 1
  242   233   149 1
  243   234   148 1
  244   235   162 1
  245   65    153 1
  246   65    174 1
@<TRIPOS>SUBSTRUCTURE
      1 CLA               1 ****               0 ****  **** 
      2 LUT             138 ****               0 ****  **** 
