@<TRIPOS>MOLECULE
Cpptraj generated mol2 file.
  235   246     2     0     0
SMALL
USER_CHARGES


@<TRIPOS>ATOM
      1 CAA        79.9360   59.2442   33.3374 a2         1 CLA     -0.055900
      2 CAB        79.8802   62.7345   42.4603 c8         1 CLA     -0.148500
      3 CAC        72.9851   58.6347   41.8647 a2         1 CLA     -0.012600
      4 CAD        75.8219   56.4776   34.4230 ck         1 CLA      0.398800
      5 NA         78.9035   59.4592   36.8816 ns         1 CLA     -0.225500
      6 CBA        81.2301   59.2705   32.4981 a2         1 CLA     -0.135000
      7 CBB        79.5083   62.3487   43.6914 c0         1 CLA     -0.395200
      8 CBC        73.3535   57.1410   42.0933 a3         1 CLA     -0.037700
      9 CBD        77.2519   57.1491   34.0618 a1         1 CLA     -0.053900
     10 NB         78.6999   60.7633   39.5153 nm         1 CLA     -0.295700
     11 OBD        75.1880   55.6255   33.8028 o2         1 CLA     -0.494600
     12 CGA        81.8445   57.9098   32.2465 c4         1 CLA      0.827000
     13 CGD        78.2221   56.1340   33.6457 c4         1 CLA      0.655300
     14 ND         76.0010   58.4505   37.3216 nm         1 CLA     -0.291600
     15 CED        78.9963   53.9300   34.2804 a3         1 CLA      0.005400
     16 CHA        77.6128   58.0607   35.3270 cs         1 CLA     -0.123800
     17 CHB        80.6030   60.8659   37.9683 aa         1 CLA     -0.291900
     18 CHC        77.3245   61.1027   41.5098 aa         1 CLA     -0.090400
     19 CHD        74.1728   58.1318   38.9722 aa         1 CLA     -0.052000
     20 CMA        82.2961   58.8599   36.2574 a3         1 CLA     -0.230700
     21 CMB        81.9323   62.3803   40.1569 a3         1 CLA     -0.180800
     22 CMC        74.8733   60.8405   43.4065 a3         1 CLA     -0.134000
     23 CMD        73.1464   56.2118   36.4972 a3         1 CLA     -0.141100
     24 C1         83.2983   56.1753   33.3086 a2         1 CLA      0.023000
     25 C1A        78.7631   58.7398   35.6810 ac         1 CLA     -0.015100
     26 C1B        80.0057   61.1132   39.1691 cr         1 CLA      0.054700
     27 C1C        76.1787   60.3652   41.1671 cn         1 CLA     -0.005600
     28 C1D        74.7910   57.8751   37.7010 ap         1 CLA     -0.047300
     29 O1A        81.7507   57.2786   31.2036 o2         1 CLA     -0.610800
     30 O1D        78.9344   56.2417   32.6661 o2         1 CLA     -0.558200
     31 C2         83.9197   56.0245   34.6718 c8         1 CLA     -0.325100
     32 C2A        80.0213   58.7844   34.7980 a1         1 CLA      0.098600
     33 C2B        80.5677   61.8201   40.2373 cb         1 CLA      0.088500
     34 C2C        75.0079   60.2493   42.0319 cb         1 CLA      0.053700
     35 C2D        74.3669   56.9925   36.6185 cb         1 CLA      0.058900
     36 O2A        82.6132   57.4665   33.2755 o1         1 CLA     -0.437200
     37 O2D        78.1903   55.0725   34.4835 o1         1 CLA     -0.357600
     38 C3         84.6441   54.9683   35.1394 c5         1 CLA      0.031200
     39 C3A        80.9930   59.6024   35.7255 a1         1 CLA      0.166800
     40 C3B        79.6294   61.9761   41.2207 cb         1 CLA      0.035000
     41 C3C        74.2148   59.2785   41.3397 cb         1 CLA     -0.089900
     42 C3D        75.3876   57.0433   35.7000 cb         1 CLA     -0.035900
     43 C4         84.1121   53.8303   35.9046 a3         1 CLA     -0.053300
     44 C4A        80.1607   60.0705   36.9282 ac         1 CLA      0.001800
     45 C4B        78.4859   61.2404   40.8193 cn         1 CLA     -0.020900
     46 C4C        74.7560   58.9906   39.9932 cr         1 CLA     -0.044400
     47 C4D        76.3839   57.9872   36.1748 c6         1 CLA     -0.046000
     48 C5         86.1217   54.9591   34.8866 a2         1 CLA     -0.070400
     49 C6         86.8586   56.0946   35.5230 a2         1 CLA      0.043900
     50 C7         86.7816   55.9713   37.0795 a2         1 CLA     -0.150000
     51 C8         87.6490   57.0921   37.8454 a1         1 CLA      0.064200
     52 C9         89.2058   56.9414   37.4885 a3         1 CLA     -0.259300
     53 C10        87.3382   57.0918   39.3478 a2         1 CLA     -0.071900
     54 C11        87.5218   58.3467   40.1082 a2         1 CLA      0.014500
     55 C12        87.4051   58.0728   41.6495 a2         1 CLA     -0.112100
     56 C13        87.1026   59.3524   42.4853 a1         1 CLA      0.089200
     57 C14        88.0600   60.5512   42.1158 a3         1 CLA     -0.239100
     58 C15        87.1546   59.2151   44.0329 a2         1 CLA     -0.102200
     59 C16        86.3695   58.0634   44.7011 a2         1 CLA      0.023900
     60 C17        86.2613   58.2957   46.2453 a2         1 CLA     -0.105700
     61 C18        85.4661   59.4611   46.8147 a1         1 CLA      0.206800
     62 C19        84.0958   59.6084   46.1637 a3         1 CLA     -0.280100
     63 C20        85.2856   59.5952   48.3325 a3         1 CLA     -0.280100
     64 NC         75.9691   59.6781   39.9294 nx         1 CLA     -0.309200
     65 MG         77.3292   59.6826   38.3072 mg         1 CLA      0.895000
     66 HMD3       72.9171   55.9207   37.5618 dc         1 CLA      0.064300
     67 HMD2       72.3192   56.6623   35.9324 dc         1 CLA      0.064300
     68 HMD1       73.4865   55.3294   35.9579 dc         1 CLA      0.064300
     69 HMC3       73.8781   60.7971   43.9181 dc         1 CLA      0.052100
     70 HMC2       75.4843   60.4375   44.1831 dc         1 CLA      0.052100
     71 HMC1       75.2401   61.8444   43.3578 dc         1 CLA      0.052100
     72 HMB3       82.5651   61.7092   39.6383 dc         1 CLA      0.063600
     73 HMB2       82.0151   63.2655   39.6619 dc         1 CLA      0.063600
     74 HMB1       82.3008   62.5534   41.1319 dc         1 CLA      0.063600
     75 HMA3       81.8860   57.9549   36.7215 dc         1 CLA      0.058300
     76 HMA2       83.0061   58.7637   35.4469 dc         1 CLA      0.058300
     77 HMA1       82.8021   59.5707   36.9985 dc         1 CLA      0.058300
     78 HED3       78.5963   53.1960   34.9368 dc         1 CLA      0.079300
     79 HED2       78.8670   53.4365   33.2545 dc         1 CLA      0.079300
     80 HED1       80.0430   54.2546   34.5852 dc         1 CLA      0.079300
     81 HBC3       72.5317   56.5508   42.4722 dc         1 CLA      0.016300
     82 HBC2       73.7377   56.5706   41.1772 dc         1 CLA      0.016300
     83 HBC1       74.1750   56.9980   42.9083 dc         1 CLA      0.016300
     84 HBB2       79.7960   63.0177   44.5516 da         1 CLA      0.183000
     85 HBB1       78.8833   61.5095   43.8730 da         1 CLA      0.183000
     86 HBA2       81.0877   59.6919   31.4819 dc         1 CLA      0.029400
     87 HBA1       81.9238   59.8582   33.1086 dc         1 CLA      0.029400
     88 HAC2       72.6593   59.0554   42.7323 dc         1 CLA      0.029300
     89 HAC1       72.1795   58.7090   41.1483 dc         1 CLA      0.029300
     90 HAA2       79.1204   58.8652   32.8113 dc         1 CLA      0.028700
     91 HAA1       79.6897   60.3182   33.4993 dc         1 CLA      0.028700
     92 H203       84.3280   59.1182   48.6134 dc         1 CLA      0.065600
     93 H202       86.2001   59.2819   48.9254 dc         1 CLA      0.065600
     94 H201       85.0561   60.6992   48.4638 dc         1 CLA      0.065600
     95 H193       83.4869   58.7395   46.4114 dc         1 CLA      0.065600
     96 H192       83.5973   60.4999   46.5484 dc         1 CLA      0.065600
     97 H191       84.1208   59.6000   45.1193 dc         1 CLA      0.065600
     98 H172       85.8678   57.3289   46.6179 dc         1 CLA      0.027600
     99 H171       87.2529   58.4099   46.6060 dc         1 CLA      0.027600
    100 H162       85.4413   57.9678   44.1657 dc         1 CLA      0.002900
    101 H161       86.8768   57.1443   44.5623 dc         1 CLA      0.002900
    102 H152       88.2023   59.0345   44.3291 dc         1 CLA      0.029100
    103 H151       86.8429   60.1611   44.5554 dc         1 CLA      0.029100
    104 H143       87.8769   60.7621   41.0672 dc         1 CLA      0.063600
    105 H142       87.9244   61.3657   42.8045 dc         1 CLA      0.063600
    106 H141       89.0939   60.2303   42.1086 dc         1 CLA      0.063600
    107 H122       86.6003   57.3326   41.8837 dc         1 CLA      0.032500
    108 H121       88.3619   57.6082   41.9784 dc         1 CLA      0.032500
    109 H112       88.4401   58.8046   39.9757 dc         1 CLA      0.006600
    110 H111       86.6150   58.8217   39.7918 dc         1 CLA      0.006600
    111 H102       86.3337   56.7568   39.5562 dc         1 CLA      0.024100
    112 H101       88.0616   56.3836   39.6749 dc         1 CLA      0.024100
    113 HHD        73.1508   57.6725   39.0969 da         1 CLA      0.174300
    114 HHC        77.1962   61.7149   42.3844 da         1 CLA      0.136800
    115 HHB        81.5913   61.1522   37.9580 da         1 CLA      0.138300
    116 HBD        77.1053   57.7866   33.2025 dc         1 CLA      0.107700
    117 HAB        80.4944   63.6811   42.2948 da         1 CLA      0.155200
    118 H93        89.3701   57.2874   36.4952 dc         1 CLA      0.069500
    119 H92        89.6941   57.6995   38.0941 dc         1 CLA      0.069500
    120 H91        89.7006   56.0023   37.6382 dc         1 CLA      0.069500
    121 H8         87.2336   58.0926   37.4481 dc         1 CLA      0.029300
    122 H72        85.7800   56.1625   37.3924 dc         1 CLA      0.044400
    123 H71        87.1097   54.9588   37.2645 dc         1 CLA      0.044400
    124 H62        87.9142   55.9510   35.1747 dc         1 CLA      0.015600
    125 H61        86.4472   57.0322   35.2721 dc         1 CLA      0.015600
    126 H52        86.5680   54.0215   35.1335 dc         1 CLA      0.033200
    127 H51        86.3392   54.9675   33.8141 dc         1 CLA      0.033200
    128 H43        84.5348   52.8296   35.5469 dc         1 CLA      0.037000
    129 H42        84.3306   53.9214   36.9625 dc         1 CLA      0.037000
    130 H41        83.0652   53.7843   35.8701 dc         1 CLA      0.037000
    131 H3A        81.2533   60.5271   35.2623 dc         1 CLA      0.041100
    132 H2A        80.3803   57.7517   34.7659 dc         1 CLA      0.083100
    133 H2         83.6767   56.8323   35.2747 da         1 CLA      0.180900
    134 H18        85.9501   60.3439   46.5314 dc         1 CLA     -0.003900
    135 H13        86.1603   59.8499   42.1530 dc         1 CLA      0.019700
    136 H12        82.6458   55.3212   33.2943 dc         1 CLA      0.120400
    137 H11        83.9822   56.0468   32.4452 dc         1 CLA      0.120400
    138 C1         69.7427   61.9501   49.2397 Z1         2 LUT      0.509236
    139 C2         68.4268   61.5314   49.8849 Z2         2 LUT     -0.434695
    140 C3         67.3561   62.6692   49.9988 Z3         2 LUT      0.437453
    141 O3         67.1651   63.1773   51.3473 S1         2 LUT     -0.547129
    142 C4         67.6032   63.9085   49.2483 Z4         2 LUT     -0.468603
    143 C5         68.4134   63.5152   47.9527 Z5         2 LUT      0.279246
    144 C6         69.4417   62.6513   48.0128 Z6         2 LUT     -0.305473
    145 C7         69.9544   62.1722   46.6915 Z7         2 LUT      0.069402
    146 C8         70.7302   62.9507   45.8851 Z8         2 LUT     -0.191631
    147 C9         71.1515   62.6208   44.4688 Z9         2 LUT      0.196698
    148 C10        72.2585   63.3465   43.9525 Y1         2 LUT     -0.208611
    149 C11        72.9200   63.2427   42.7175 Y2         2 LUT      0.030784
    150 C12        74.1074   63.9685   42.4372 Y3         2 LUT     -0.220316
    151 C13        75.0944   63.9227   41.3018 Y4         2 LUT      0.215937
    152 C14        76.3355   64.5852   41.4186 Y5         2 LUT     -0.185793
    153 C15        77.3669   64.7213   40.4004 Y6         2 LUT     -0.057835
    154 C16        70.5046   60.6212   49.1570 Y7         2 LUT     -0.405615
    155 C17        70.5577   62.8441   50.2454 Y7         2 LUT     -0.405615
    156 C18        67.9611   64.1548   46.6125 Y9         2 LUT     -0.369639
    157 C19        70.4017   61.3951   43.7635 W1         2 LUT     -0.333362
    158 C20        74.7376   63.0990   40.0473 W2         2 LUT     -0.323439
    159 C21        88.7614   66.3604   34.6350 Z1         2 LUT      0.406104
    160 C22        89.3284   65.7340   33.2945 Z2         2 LUT     -0.404965
    161 C23        89.4109   66.6395   32.0720 Z3         2 LUT      0.391255
    162 O23        89.9832   65.8917   31.0086 S1         2 LUT     -0.528210
    163 C24        88.0610   67.3513   31.9451 W6         2 LUT     -0.258361
    164 C25        87.1317   67.5418   32.8681 Z5         2 LUT      0.133546
    165 C26        87.3302   66.9271   34.2993 W8         2 LUT     -0.147008
    166 C27        86.5386   67.5848   35.4079 Z7         2 LUT      0.023843
    167 C28        85.3206   67.1215   35.8276 Z8         2 LUT     -0.216987
    168 C29        84.6443   67.4490   36.9946 Z9         2 LUT      0.206524
    169 C30        83.5599   66.6967   37.3367 Y1         2 LUT     -0.215556
    170 C31        82.8107   66.7674   38.5088 Y2         2 LUT      0.025142
    171 C32        81.7298   65.9917   38.7271 Y3         2 LUT     -0.212209
    172 C33        80.8513   65.9725   39.9321 Y4         2 LUT      0.240937
    173 C34        79.6152   65.3974   39.7358 Y5         2 LUT     -0.218862
    174 C35        78.4983   65.3559   40.7045 Y6         2 LUT     -0.023547
    175 C36        89.7471   67.5193   35.0958 Y7         2 LUT     -0.393485
    176 C37        88.7997   65.1308   35.6880 Y7         2 LUT     -0.393485
    177 C38        85.8798   68.3514   32.4804 Y9         2 LUT     -0.387526
    178 C39        85.2387   68.4972   37.9101 W1         2 LUT     -0.322618
    179 C40        81.3086   66.7648   41.1858 W2         2 LUT     -0.358472
    180 H403       80.7824   66.5237   42.1025 R7         2 LUT      0.097720
    181 H402       82.3597   66.6910   41.5016 R7         2 LUT      0.097720
    182 H401       81.1500   67.8255   41.0128 R7         2 LUT      0.097720
    183 H393       86.0232   68.0480   38.5184 R4         2 LUT      0.082505
    184 H392       85.7099   69.3831   37.5221 R4         2 LUT      0.082505
    185 H391       84.5615   68.9970   38.6200 R4         2 LUT      0.082505
    186 H383       85.7112   69.2331   33.0503 R1         2 LUT      0.104030
    187 H382       85.8392   68.5997   31.4225 R1         2 LUT      0.104030
    188 H381       84.9451   67.8117   32.6850 R1         2 LUT      0.104030
    189 H373       89.8361   64.7853   36.0463 T4         2 LUT      0.089537
    190 H372       88.1051   65.2974   36.5061 T4         2 LUT      0.089537
    191 H371       88.4557   64.3328   35.1083 T4         2 LUT      0.089537
    192 H363       89.3932   68.3731   34.5170 T4         2 LUT      0.089537
    193 H362       89.5615   67.7531   36.1549 T4         2 LUT      0.089537
    194 H361       90.8652   67.4275   35.0535 T4         2 LUT      0.089537
    195 H222       90.3221   65.2960   33.4533 U2         2 LUT      0.127376
    196 H221       88.7189   64.9037   32.9653 U2         2 LUT      0.127376
    197 H203       74.1841   62.2184   40.3354 R7         2 LUT      0.087068
    198 H202       74.2824   63.5470   39.1513 R7         2 LUT      0.087068
    199 H201       75.6591   62.5982   39.6226 R7         2 LUT      0.087068
    200 H193       70.5244   60.3957   44.2674 R4         2 LUT      0.089716
    201 H192       69.3116   61.6004   43.7302 R4         2 LUT      0.089716
    202 H191       70.6595   61.1077   42.7266 R4         2 LUT      0.089716
    203 H183       68.0093   63.4576   45.7706 R1         2 LUT      0.094572
    204 H182       66.9184   64.5133   46.7313 R1         2 LUT      0.094572
    205 H181       68.5683   64.9926   46.3853 R1         2 LUT      0.094572
    206 H173       71.1485   62.3341   50.9527 T4         2 LUT      0.093752
    207 H172       71.4798   63.2740   49.8345 T4         2 LUT      0.093752
    208 H171       69.8307   63.5844   50.7275 T4         2 LUT      0.093752
    209 H163       71.5100   60.7850   48.6915 T4         2 LUT      0.093752
    210 H162       70.6222   60.2048   50.1929 T4         2 LUT      0.093752
    211 H161       70.0564   59.9047   48.4709 T4         2 LUT      0.093752
    212 HO3        66.5528   62.5883   51.8761 Q1         2 LUT      0.300121
    213 H8         71.1141   63.7795   46.5088 U7         2 LUT      0.080784
    214 H7         69.6190   61.1950   46.4153 U6         2 LUT      0.042190
    215 H42        66.6895   64.3974   48.9568 U5         2 LUT      0.145166
    216 H41        68.1560   64.6144   49.8595 U5         2 LUT      0.145166
    217 H35        78.5859   65.8182   41.6890 T3         2 LUT      0.077919
    218 H34        79.3733   64.8863   38.7150 T2         2 LUT      0.073626
    219 H32        81.4069   65.3536   37.9038 T1         2 LUT      0.092510
    220 H31        83.1918   67.4394   39.2869 U9         2 LUT      0.070048
    221 H30        83.4096   65.9484   36.5359 U8         2 LUT      0.085442
    222 H3         66.3397   62.3262   49.5398 U3         2 LUT     -0.031596
    223 H28        84.8123   66.6458   35.0348 U7         2 LUT      0.084728
    224 H27        87.1176   68.1814   36.1100 U6         2 LUT      0.087291
    225 H26        86.7290   66.0373   34.1093 Q6         2 LUT      0.075325
    226 H24        88.0108   67.8410   30.9704 Q5         2 LUT      0.094482
    227 H23        90.1836   67.3903   32.3409 U3         2 LUT     -0.024869
    228 H22        67.9620   60.5828   49.6016 U2         2 LUT      0.127376
    229 H21        68.6165   61.3135   50.9814 U2         2 LUT      0.127376
    230 H15        77.2427   64.3409   39.4006 T3         2 LUT      0.093200
    231 H14        76.5831   65.0659   42.3634 T2         2 LUT      0.068865
    232 H12        74.4061   64.4606   43.3464 T1         2 LUT      0.095507
    233 H11        72.4231   62.5539   41.9394 U9         2 LUT      0.068930
    234 H10        72.6588   64.1445   44.5405 U8         2 LUT      0.083911
    235 H1         89.8162   66.2946   30.1819 Q1         2 LUT      0.297311
@<TRIPOS>BOND
    1     6     1 1
    2     7     2 1
    3     8     3 1
    4     9     4 1
    5    11     4 1
    6    12     6 1
    7    13     9 1
    8    16     9 1
    9    25     5 1
   10    25    16 1
   11    26    10 1
   12    26    17 1
   13    27    18 1
   14    28    14 1
   15    28    19 1
   16    29    12 1
   17    30    13 1
   18    31    24 1
   19    32     1 1
   20    32    25 1
   21    33    21 1
   22    33    26 1
   23    34    22 1
   24    34    27 1
   25    35    23 1
   26    35    28 1
   27    36    12 1
   28    36    24 1
   29    37    13 1
   30    37    15 1
   31    38    31 1
   32    39    20 1
   33    39    32 1
   34    40     2 1
   35    40    33 1
   36    41     3 1
   37    41    34 1
   38    42     4 1
   39    42    35 1
   40    43    38 1
   41    44     5 1
   42    44    17 1
   43    44    39 1
   44    45    10 1
   45    45    18 1
   46    45    40 1
   47    46    19 1
   48    46    41 1
   49    47    14 1
   50    47    16 1
   51    47    42 1
   52    48    38 1
   53    49    48 1
   54    50    49 1
   55    51    50 1
   56    52    51 1
   57    53    51 1
   58    54    53 1
   59    55    54 1
   60    56    55 1
   61    57    56 1
   62    58    56 1
   63    59    58 1
   64    60    59 1
   65    61    60 1
   66    62    61 1
   67    63    61 1
   68    64    27 1
   69    64    46 1
   70    65     5 1
   71    65    10 1
   72    65    64 1
   73    65    14 1
   74    66    23 1
   75    67    23 1
   76    68    23 1
   77    69    22 1
   78    70    22 1
   79    71    22 1
   80    72    21 1
   81    73    21 1
   82    74    21 1
   83    75    20 1
   84    76    20 1
   85    77    20 1
   86    78    15 1
   87    79    15 1
   88    80    15 1
   89    81     8 1
   90    82     8 1
   91    83     8 1
   92    84     7 1
   93    85     7 1
   94    86     6 1
   95    87     6 1
   96    88     3 1
   97    89     3 1
   98    90     1 1
   99    91     1 1
  100    92    63 1
  101    93    63 1
  102    94    63 1
  103    95    62 1
  104    96    62 1
  105    97    62 1
  106    98    60 1
  107    99    60 1
  108   100    59 1
  109   101    59 1
  110   102    58 1
  111   103    58 1
  112   104    57 1
  113   105    57 1
  114   106    57 1
  115   107    55 1
  116   108    55 1
  117   109    54 1
  118   110    54 1
  119   111    53 1
  120   112    53 1
  121   113    19 1
  122   114    18 1
  123   115    17 1
  124   116     9 1
  125   117     2 1
  126   118    52 1
  127   119    52 1
  128   120    52 1
  129   121    51 1
  130   122    50 1
  131   123    50 1
  132   124    49 1
  133   125    49 1
  134   126    48 1
  135   127    48 1
  136   128    43 1
  137   129    43 1
  138   130    43 1
  139   131    39 1
  140   132    32 1
  141   133    31 1
  142   134    61 1
  143   135    56 1
  144   136    24 1
  145   137    24 1
  146   139   138 1
  147   140   139 1
  148   141   140 1
  149   142   140 1
  150   143   142 1
  151   144   138 1
  152   144   143 1
  153   145   144 1
  154   146   145 1
  155   147   146 1
  156   148   147 1
  157   149   148 1
  158   150   149 1
  159   151   150 1
  160   152   151 1
  161   153   152 1
  162   154   138 1
  163   155   138 1
  164   156   143 1
  165   157   147 1
  166   158   151 1
  167   160   159 1
  168   161   160 1
  169   162   161 1
  170   163   161 1
  171   164   163 1
  172   165   159 1
  173   165   164 1
  174   166   165 1
  175   167   166 1
  176   168   167 1
  177   169   168 1
  178   170   169 1
  179   171   170 1
  180   172   171 1
  181   173   172 1
  182   174   153 1
  183   174   173 1
  184   175   159 1
  185   176   159 1
  186   177   164 1
  187   178   168 1
  188   179   172 1
  189   180   179 1
  190   181   179 1
  191   182   179 1
  192   183   178 1
  193   184   178 1
  194   185   178 1
  195   186   177 1
  196   187   177 1
  197   188   177 1
  198   189   176 1
  199   190   176 1
  200   191   176 1
  201   192   175 1
  202   193   175 1
  203   194   175 1
  204   195   160 1
  205   196   160 1
  206   197   158 1
  207   198   158 1
  208   199   158 1
  209   200   157 1
  210   201   157 1
  211   202   157 1
  212   203   156 1
  213   204   156 1
  214   205   156 1
  215   206   155 1
  216   207   155 1
  217   208   155 1
  218   209   154 1
  219   210   154 1
  220   211   154 1
  221   212   141 1
  222   213   146 1
  223   214   145 1
  224   215   142 1
  225   216   142 1
  226   217   174 1
  227   218   173 1
  228   219   171 1
  229   220   170 1
  230   221   169 1
  231   222   140 1
  232   223   167 1
  233   224   166 1
  234   225   165 1
  235   226   163 1
  236   227   161 1
  237   228   139 1
  238   229   139 1
  239   230   153 1
  240   231   152 1
  241   232   150 1
  242   233   149 1
  243   234   148 1
  244   235   162 1
  245   65    153 1
  246   65    174 1
@<TRIPOS>SUBSTRUCTURE
      1 CLA               1 ****               0 ****  **** 
      2 LUT             138 ****               0 ****  **** 
