@<TRIPOS>MOLECULE
Cpptraj generated mol2 file.
  235   246     2     0     0
SMALL
USER_CHARGES


@<TRIPOS>ATOM
      1 CAA        79.4134   57.5866   34.4482 a2         1 CLA     -0.055900
      2 CAB        79.7826   62.1415   43.0833 c8         1 CLA     -0.148500
      3 CAC        72.9702   57.8002   43.2011 a2         1 CLA     -0.012600
      4 CAD        75.3818   55.2084   35.7003 ck         1 CLA      0.398800
      5 NA         78.5076   58.4093   37.7409 ns         1 CLA     -0.225500
      6 CBA        80.6005   57.5097   33.4131 a2         1 CLA     -0.135000
      7 CBB        80.9301   62.0621   43.7485 c0         1 CLA     -0.395200
      8 CBC        73.0600   56.3134   43.4576 a3         1 CLA     -0.037700
      9 CBD        76.8509   55.7257   35.5043 a1         1 CLA     -0.053900
     10 NB         78.4748   60.0884   40.1439 nm         1 CLA     -0.295700
     11 OBD        74.7990   54.4882   34.9507 o2         1 CLA     -0.494600
     12 CGA        81.0307   56.1483   32.9923 c4         1 CLA      0.827000
     13 CGD        77.7124   54.4995   35.5250 c4         1 CLA      0.655300
     14 ND         75.7369   57.4044   38.4922 nm         1 CLA     -0.291600
     15 CED        78.5499   52.7572   36.8059 a3         1 CLA      0.005400
     16 CHA        77.0874   56.7988   36.5478 cs         1 CLA     -0.123800
     17 CHB        80.3331   59.9402   38.5480 aa         1 CLA     -0.291900
     18 CHC        77.2110   60.3775   42.2269 aa         1 CLA     -0.090400
     19 CHD        74.0924   57.2703   40.2249 aa         1 CLA     -0.052000
     20 CMA        81.8190   57.6289   37.5616 a3         1 CLA     -0.230700
     21 CMB        81.7846   61.8483   40.4803 a3         1 CLA     -0.180800
     22 CMC        75.0014   60.0927   44.3370 a3         1 CLA     -0.134000
     23 CMD        72.8020   55.1302   38.0552 a3         1 CLA     -0.141100
     24 C1         81.6849   54.0088   33.9666 a2         1 CLA      0.023000
     25 C1A        78.3305   57.4935   36.7336 ac         1 CLA     -0.015100
     26 C1B        79.7339   60.4610   39.7061 cr         1 CLA      0.054700
     27 C1C        76.1025   59.5256   42.0694 cn         1 CLA     -0.005600
     28 C1D        74.5294   56.9348   38.9345 ap         1 CLA     -0.047300
     29 O1A        80.7813   55.6313   31.8748 o2         1 CLA     -0.610800
     30 O1D        78.0362   53.9391   34.4586 o2         1 CLA     -0.558200
     31 C2         82.5234   53.5715   35.0709 c8         1 CLA     -0.325100
     32 C2A        79.6545   57.3109   35.9480 a1         1 CLA      0.098600
     33 C2B        80.3907   61.3419   40.6284 cb         1 CLA      0.088500
     34 C2C        75.0297   59.3386   43.0281 cb         1 CLA      0.053700
     35 C2D        74.0313   55.9207   37.9331 cb         1 CLA      0.058900
     36 O2A        81.5648   55.4567   34.0624 o1         1 CLA     -0.437200
     37 O2D        78.0141   54.1453   36.8218 o1         1 CLA     -0.357600
     38 C3         83.7750   53.0538   34.8913 c5         1 CLA      0.031200
     39 C3A        80.6957   58.2653   36.6699 a1         1 CLA      0.166800
     40 C3B        79.5335   61.4396   41.7223 cb         1 CLA      0.035000
     41 C3C        74.1875   58.3438   42.4891 cb         1 CLA     -0.089900
     42 C3D        75.0165   55.8563   36.9517 cb         1 CLA     -0.035900
     43 C4         83.9834   51.6416   34.3627 a3         1 CLA     -0.053300
     44 C4A        79.7993   58.9412   37.6911 ac         1 CLA      0.001800
     45 C4B        78.3024   60.6492   41.3914 cn         1 CLA     -0.020900
     46 C4C        74.7078   58.0936   41.1981 cr         1 CLA     -0.044400
     47 C4D        76.0543   56.7194   37.4060 c6         1 CLA     -0.046000
     48 C5         84.9542   53.8705   35.1751 a2         1 CLA     -0.070400
     49 C6         85.2608   54.0648   36.6196 a2         1 CLA      0.043900
     50 C7         86.4328   55.0636   36.9781 a2         1 CLA     -0.150000
     51 C8         86.6129   55.3813   38.4656 a1         1 CLA      0.064200
     52 C9         85.3916   56.0000   39.1431 a3         1 CLA     -0.259300
     53 C10        87.9563   56.2259   38.6810 a2         1 CLA     -0.071900
     54 C11        88.4918   56.5877   40.0895 a2         1 CLA      0.014500
     55 C12        88.6301   55.4195   41.0756 a2         1 CLA     -0.112100
     56 C13        89.1903   55.8019   42.5315 a1         1 CLA      0.089200
     57 C14        89.1779   54.5522   43.4231 a3         1 CLA     -0.239100
     58 C15        88.5173   57.0430   43.1926 a2         1 CLA     -0.102200
     59 C16        86.9696   56.8967   43.4285 a2         1 CLA      0.023900
     60 C17        86.5277   58.0498   44.3351 a2         1 CLA     -0.105700
     61 C18        85.0237   57.9427   44.6699 a1         1 CLA      0.206800
     62 C19        84.5665   56.6288   45.2783 a3         1 CLA     -0.280100
     63 C20        84.5260   59.1924   45.3841 a3         1 CLA     -0.280100
     64 NC         75.9187   58.7209   41.0116 nx         1 CLA     -0.309200
     65 MG         77.0289   58.7573   39.2210 mg         1 CLA      0.895000
     66 HMD3       71.9982   55.5991   37.4538 dc         1 CLA      0.064300
     67 HMD2       72.9351   54.0864   37.8553 dc         1 CLA      0.064300
     68 HMD1       72.5393   55.3061   39.1336 dc         1 CLA      0.064300
     69 HMC3       74.0355   60.0439   44.7719 dc         1 CLA      0.052100
     70 HMC2       75.5676   59.4481   44.8908 dc         1 CLA      0.052100
     71 HMC1       75.4451   61.0739   44.2848 dc         1 CLA      0.052100
     72 HMB3       82.4134   60.9579   40.4929 dc         1 CLA      0.063600
     73 HMB2       81.9371   62.3654   39.5167 dc         1 CLA      0.063600
     74 HMB1       81.9693   62.5290   41.3004 dc         1 CLA      0.063600
     75 HMA3       81.3992   57.1649   38.4496 dc         1 CLA      0.058300
     76 HMA2       82.3808   56.8618   36.9882 dc         1 CLA      0.058300
     77 HMA1       82.4679   58.4750   37.7588 dc         1 CLA      0.058300
     78 HED3       79.5224   52.7581   36.3478 dc         1 CLA      0.079300
     79 HED2       78.6662   52.4396   37.8357 dc         1 CLA      0.079300
     80 HED1       77.9392   52.0246   36.2885 dc         1 CLA      0.079300
     81 HBC3       72.1512   56.0467   43.9487 dc         1 CLA      0.016300
     82 HBC2       72.9148   55.7376   42.5418 dc         1 CLA      0.016300
     83 HBC1       73.9497   56.0306   44.0164 dc         1 CLA      0.016300
     84 HBB2       81.0569   62.5310   44.7504 da         1 CLA      0.183000
     85 HBB1       81.8269   61.5558   43.4283 da         1 CLA      0.183000
     86 HBA2       80.4075   58.0599   32.5305 dc         1 CLA      0.029400
     87 HBA1       81.5256   58.0041   33.8872 dc         1 CLA      0.029400
     88 HAC2       72.8721   58.3773   44.1436 dc         1 CLA      0.029300
     89 HAC1       72.1337   58.0579   42.5616 dc         1 CLA      0.029300
     90 HAA2       78.6407   56.9177   34.1281 dc         1 CLA      0.028700
     91 HAA1       79.0333   58.6076   34.3676 dc         1 CLA      0.028700
     92 H203       85.1179   59.3539   46.3124 dc         1 CLA      0.065600
     93 H202       84.5719   60.0435   44.6858 dc         1 CLA      0.065600
     94 H201       83.4723   58.9951   45.5921 dc         1 CLA      0.065600
     95 H193       84.8141   55.7170   44.6888 dc         1 CLA      0.065600
     96 H192       85.0479   56.4469   46.2961 dc         1 CLA      0.065600
     97 H191       83.5513   56.6011   45.5119 dc         1 CLA      0.065600
     98 H172       87.2173   58.0951   45.1731 dc         1 CLA      0.027600
     99 H171       86.7152   59.1043   43.9252 dc         1 CLA      0.027600
    100 H162       86.4048   56.9234   42.4890 dc         1 CLA      0.002900
    101 H161       86.7949   56.0011   44.0897 dc         1 CLA      0.002900
    102 H152       88.9997   57.1606   44.1705 dc         1 CLA      0.029100
    103 H151       88.6759   57.9472   42.6593 dc         1 CLA      0.029100
    104 H143       88.2355   54.0103   43.2326 dc         1 CLA      0.063600
    105 H142       89.9653   53.8128   43.2502 dc         1 CLA      0.063600
    106 H141       89.0502   54.8069   44.4707 dc         1 CLA      0.063600
    107 H122       87.7505   54.9511   41.2752 dc         1 CLA      0.032500
    108 H121       89.2767   54.7042   40.5739 dc         1 CLA      0.032500
    109 H112       89.4164   57.1324   40.0703 dc         1 CLA      0.006600
    110 H111       87.8224   57.3199   40.5479 dc         1 CLA      0.006600
    111 H102       88.7435   55.6681   38.0726 dc         1 CLA      0.024100
    112 H101       87.7101   57.2518   38.2958 dc         1 CLA      0.024100
    113 HHD        73.1618   56.7748   40.5274 da         1 CLA      0.174300
    114 HHC        77.1924   60.7986   43.2074 da         1 CLA      0.136800
    115 HHB        81.3990   60.2303   38.4445 da         1 CLA      0.138300
    116 HBD        76.8465   56.0510   34.4830 dc         1 CLA      0.107700
    117 HAB        78.9661   62.6615   43.4943 da         1 CLA      0.155200
    118 H93        84.5334   55.3710   39.0602 dc         1 CLA      0.069500
    119 H92        85.6627   55.9078   40.1766 dc         1 CLA      0.069500
    120 H91        85.3032   57.0384   38.9133 dc         1 CLA      0.069500
    121 H8         86.7122   54.4107   39.0033 dc         1 CLA      0.029300
    122 H72        87.3602   54.5922   36.7313 dc         1 CLA      0.044400
    123 H71        86.2720   56.0116   36.4451 dc         1 CLA      0.044400
    124 H62        84.3263   54.4219   37.0496 dc         1 CLA      0.015600
    125 H61        85.4665   53.1168   37.1471 dc         1 CLA      0.015600
    126 H52        85.7970   53.4415   34.7322 dc         1 CLA      0.033200
    127 H51        84.7675   54.8765   34.7390 dc         1 CLA      0.033200
    128 H43        83.0583   51.0586   34.4557 dc         1 CLA      0.037000
    129 H42        84.2245   51.6523   33.3221 dc         1 CLA      0.037000
    130 H41        84.7743   51.2855   34.9393 dc         1 CLA      0.037000
    131 H3A        81.1655   58.9955   36.0392 dc         1 CLA      0.041100
    132 H2A        79.9743   56.2619   35.8903 dc         1 CLA      0.083100
    133 H2         81.9838   53.4130   36.0211 da         1 CLA      0.180900
    134 H18        84.5621   57.7630   43.7045 dc         1 CLA     -0.003900
    135 H13        90.2807   55.9564   42.4251 dc         1 CLA      0.019700
    136 H12        80.7794   53.5100   34.0455 dc         1 CLA      0.120400
    137 H11        82.1126   53.8207   33.0134 dc         1 CLA      0.120400
    138 C1         69.7297   61.0430   49.9482 Z1         2 LUT      0.509236
    139 C2         68.3890   60.9581   50.7923 Z2         2 LUT     -0.434695
    140 C3         67.6332   62.2518   51.0535 Z3         2 LUT      0.437453
    141 O3         68.0089   62.7441   52.3267 S1         2 LUT     -0.547129
    142 C4         67.8044   63.3029   50.0018 Z4         2 LUT     -0.468603
    143 C5         68.5418   62.9397   48.7529 Z5         2 LUT      0.279246
    144 C6         69.4662   61.8816   48.7339 Z6         2 LUT     -0.305473
    145 C7         70.0558   61.4053   47.4182 Z7         2 LUT      0.069402
    146 C8         70.6640   62.1794   46.4547 Z8         2 LUT     -0.191631
    147 C9         71.2896   61.6529   45.1792 Z9         2 LUT      0.196698
    148 C10        72.1523   62.5083   44.5377 Y1         2 LUT     -0.208611
    149 C11        72.9000   62.4066   43.3691 Y2         2 LUT      0.030784
    150 C12        73.8992   63.2520   42.9795 Y3         2 LUT     -0.220316
    151 C13        74.8878   63.2433   41.9361 Y4         2 LUT      0.215937
    152 C14        76.0359   64.0260   42.1603 Y5         2 LUT     -0.185793
    153 C15        77.1860   64.1163   41.2838 Y6         2 LUT     -0.057835
    154 C16        70.1706   59.5149   49.7025 Y7         2 LUT     -0.405615
    155 C17        70.7913   61.7369   50.8626 Y7         2 LUT     -0.405615
    156 C18        68.0234   63.6444   47.5020 Y9         2 LUT     -0.369639
    157 C19        70.7279   60.3548   44.6012 W1         2 LUT     -0.333362
    158 C20        74.6080   62.5086   40.5988 W2         2 LUT     -0.323439
    159 C21        88.8355   64.8249   35.8239 Z1         2 LUT      0.406104
    160 C22        89.3909   63.9332   34.6640 Z2         2 LUT     -0.404965
    161 C23        89.6329   64.7376   33.3905 Z3         2 LUT      0.391255
    162 O23        90.1487   63.7107   32.4756 S1         2 LUT     -0.528210
    163 C24        88.5393   65.6640   32.9801 W6         2 LUT     -0.258361
    164 C25        87.5901   65.9738   33.8504 Z5         2 LUT      0.133546
    165 C26        87.4890   65.3678   35.2635 W8         2 LUT     -0.147008
    166 C27        86.7225   66.2213   36.1532 Z7         2 LUT      0.023843
    167 C28        85.4495   65.9706   36.6138 Z8         2 LUT     -0.216987
    168 C29        84.8677   66.3640   37.9404 Z9         2 LUT      0.206524
    169 C30        83.7404   65.6828   38.4108 Y1         2 LUT     -0.215556
    170 C31        82.8930   65.9677   39.5682 Y2         2 LUT      0.025142
    171 C32        81.6507   65.3441   39.7555 Y3         2 LUT     -0.212209
    172 C33        80.7565   65.5013   40.8730 Y4         2 LUT      0.240937
    173 C34        79.5431   64.8288   40.7825 Y5         2 LUT     -0.218862
    174 C35        78.3516   64.7515   41.6173 Y6         2 LUT     -0.023547
    175 C36        89.7447   66.0148   36.2824 Y7         2 LUT     -0.393485
    176 C37        88.7304   63.7475   36.9555 Y7         2 LUT     -0.393485
    177 C38        86.4951   66.9875   33.3734 Y9         2 LUT     -0.387526
    178 C39        85.5626   67.5518   38.6327 W1         2 LUT     -0.322618
    179 C40        81.1313   66.2156   42.1929 W2         2 LUT     -0.358472
    180 H403       80.9240   65.6396   42.9997 R7         2 LUT      0.097720
    181 H402       82.1289   66.4667   42.2358 R7         2 LUT      0.097720
    182 H401       80.6447   67.1497   42.3541 R7         2 LUT      0.097720
    183 H393       86.1383   68.2155   38.0416 R4         2 LUT      0.082505
    184 H392       84.7963   68.1807   39.1220 R4         2 LUT      0.082505
    185 H391       86.2762   67.2413   39.3893 R4         2 LUT      0.082505
    186 H383       86.8645   67.6270   32.5265 R1         2 LUT      0.104030
    187 H382       85.5967   66.5346   32.9085 R1         2 LUT      0.104030
    188 H381       85.9899   67.6964   34.1455 R1         2 LUT      0.104030
    189 H373       89.6472   63.3967   37.3842 T4         2 LUT      0.089537
    190 H372       88.1215   64.2354   37.7957 T4         2 LUT      0.089537
    191 H371       88.2838   62.7855   36.6307 T4         2 LUT      0.089537
    192 H363       89.5881   66.2764   37.3042 T4         2 LUT      0.089537
    193 H362       90.7767   65.4989   36.3147 T4         2 LUT      0.089537
    194 H361       89.7419   66.8219   35.6022 T4         2 LUT      0.089537
    195 H222       90.3238   63.4718   34.9619 U2         2 LUT      0.127376
    196 H221       88.5856   63.2489   34.3885 U2         2 LUT      0.127376
    197 H203       75.3448   62.7032   39.8624 R7         2 LUT      0.087068
    198 H202       74.6706   61.4525   40.7852 R7         2 LUT      0.087068
    199 H201       73.6469   62.7695   40.2070 R7         2 LUT      0.087068
    200 H193       71.1722   60.1147   43.6691 R4         2 LUT      0.089716
    201 H192       70.8078   59.4896   45.2768 R4         2 LUT      0.089716
    202 H191       69.7145   60.5016   44.1533 R4         2 LUT      0.089716
    203 H183       68.4030   64.6487   47.3673 R1         2 LUT      0.094572
    204 H182       68.2940   63.2811   46.5359 R1         2 LUT      0.094572
    205 H181       66.9280   63.7542   47.5010 R1         2 LUT      0.094572
    206 H173       70.9586   61.1691   51.7708 T4         2 LUT      0.093752
    207 H172       71.7296   61.8159   50.3566 T4         2 LUT      0.093752
    208 H171       70.3520   62.6366   51.2569 T4         2 LUT      0.093752
    209 H163       71.1257   59.3760   49.0802 T4         2 LUT      0.093752
    210 H162       70.3036   58.9982   50.6660 T4         2 LUT      0.093752
    211 H161       69.4285   59.0195   49.0980 T4         2 LUT      0.093752
    212 HO3        67.3937   62.3848   52.9772 Q1         2 LUT      0.300121
    213 H8         70.8108   63.1991   46.6941 U7         2 LUT      0.080784
    214 H7         70.1104   60.3578   47.2068 U6         2 LUT      0.042190
    215 H42        66.7943   63.6552   49.6899 U5         2 LUT      0.145166
    216 H41        68.2441   64.1232   50.4217 U5         2 LUT      0.145166
    217 H35        78.4731   65.1491   42.6071 T3         2 LUT      0.077919
    218 H34        79.4108   64.3550   39.8752 T2         2 LUT      0.073626
    219 H32        81.3137   64.6995   38.9191 T1         2 LUT      0.092510
    220 H31        83.3252   66.5424   40.3141 U9         2 LUT      0.070048
    221 H30        83.2300   64.8582   37.8401 U8         2 LUT      0.085442
    222 H3         66.5637   62.1167   51.0861 U3         2 LUT     -0.031596
    223 H28        84.9151   65.1999   36.1568 U7         2 LUT      0.084728
    224 H27        87.3763   66.7337   36.8876 U6         2 LUT      0.087291
    225 H26        86.8542   64.4426   35.0825 Q6         2 LUT      0.075325
    226 H24        88.4376   66.2137   32.0041 Q5         2 LUT      0.094482
    227 H23        90.5262   65.3043   33.6215 U3         2 LUT     -0.024869
    228 H22        67.6621   60.3182   50.3608 U2         2 LUT      0.127376
    229 H21        68.4948   60.4529   51.7622 U2         2 LUT      0.127376
    230 H15        77.1457   63.6816   40.2860 T3         2 LUT      0.093200
    231 H14        76.1879   64.4571   43.1163 T2         2 LUT      0.068865
    232 H12        74.1343   63.9725   43.7470 T1         2 LUT      0.095507
    233 H11        72.6918   61.5582   42.8207 U9         2 LUT      0.068930
    234 H10        72.4405   63.4675   44.9730 U8         2 LUT      0.083911
    235 H1         89.6347   63.5599   31.6546 Q1         2 LUT      0.297311
@<TRIPOS>BOND
    1     6     1 1
    2     7     2 1
    3     8     3 1
    4     9     4 1
    5    11     4 1
    6    12     6 1
    7    13     9 1
    8    16     9 1
    9    25     5 1
   10    25    16 1
   11    26    10 1
   12    26    17 1
   13    27    18 1
   14    28    14 1
   15    28    19 1
   16    29    12 1
   17    30    13 1
   18    31    24 1
   19    32     1 1
   20    32    25 1
   21    33    21 1
   22    33    26 1
   23    34    22 1
   24    34    27 1
   25    35    23 1
   26    35    28 1
   27    36    12 1
   28    36    24 1
   29    37    13 1
   30    37    15 1
   31    38    31 1
   32    39    20 1
   33    39    32 1
   34    40     2 1
   35    40    33 1
   36    41     3 1
   37    41    34 1
   38    42     4 1
   39    42    35 1
   40    43    38 1
   41    44     5 1
   42    44    17 1
   43    44    39 1
   44    45    10 1
   45    45    18 1
   46    45    40 1
   47    46    19 1
   48    46    41 1
   49    47    14 1
   50    47    16 1
   51    47    42 1
   52    48    38 1
   53    49    48 1
   54    50    49 1
   55    51    50 1
   56    52    51 1
   57    53    51 1
   58    54    53 1
   59    55    54 1
   60    56    55 1
   61    57    56 1
   62    58    56 1
   63    59    58 1
   64    60    59 1
   65    61    60 1
   66    62    61 1
   67    63    61 1
   68    64    27 1
   69    64    46 1
   70    65     5 1
   71    65    10 1
   72    65    64 1
   73    65    14 1
   74    66    23 1
   75    67    23 1
   76    68    23 1
   77    69    22 1
   78    70    22 1
   79    71    22 1
   80    72    21 1
   81    73    21 1
   82    74    21 1
   83    75    20 1
   84    76    20 1
   85    77    20 1
   86    78    15 1
   87    79    15 1
   88    80    15 1
   89    81     8 1
   90    82     8 1
   91    83     8 1
   92    84     7 1
   93    85     7 1
   94    86     6 1
   95    87     6 1
   96    88     3 1
   97    89     3 1
   98    90     1 1
   99    91     1 1
  100    92    63 1
  101    93    63 1
  102    94    63 1
  103    95    62 1
  104    96    62 1
  105    97    62 1
  106    98    60 1
  107    99    60 1
  108   100    59 1
  109   101    59 1
  110   102    58 1
  111   103    58 1
  112   104    57 1
  113   105    57 1
  114   106    57 1
  115   107    55 1
  116   108    55 1
  117   109    54 1
  118   110    54 1
  119   111    53 1
  120   112    53 1
  121   113    19 1
  122   114    18 1
  123   115    17 1
  124   116     9 1
  125   117     2 1
  126   118    52 1
  127   119    52 1
  128   120    52 1
  129   121    51 1
  130   122    50 1
  131   123    50 1
  132   124    49 1
  133   125    49 1
  134   126    48 1
  135   127    48 1
  136   128    43 1
  137   129    43 1
  138   130    43 1
  139   131    39 1
  140   132    32 1
  141   133    31 1
  142   134    61 1
  143   135    56 1
  144   136    24 1
  145   137    24 1
  146   139   138 1
  147   140   139 1
  148   141   140 1
  149   142   140 1
  150   143   142 1
  151   144   138 1
  152   144   143 1
  153   145   144 1
  154   146   145 1
  155   147   146 1
  156   148   147 1
  157   149   148 1
  158   150   149 1
  159   151   150 1
  160   152   151 1
  161   153   152 1
  162   154   138 1
  163   155   138 1
  164   156   143 1
  165   157   147 1
  166   158   151 1
  167   160   159 1
  168   161   160 1
  169   162   161 1
  170   163   161 1
  171   164   163 1
  172   165   159 1
  173   165   164 1
  174   166   165 1
  175   167   166 1
  176   168   167 1
  177   169   168 1
  178   170   169 1
  179   171   170 1
  180   172   171 1
  181   173   172 1
  182   174   153 1
  183   174   173 1
  184   175   159 1
  185   176   159 1
  186   177   164 1
  187   178   168 1
  188   179   172 1
  189   180   179 1
  190   181   179 1
  191   182   179 1
  192   183   178 1
  193   184   178 1
  194   185   178 1
  195   186   177 1
  196   187   177 1
  197   188   177 1
  198   189   176 1
  199   190   176 1
  200   191   176 1
  201   192   175 1
  202   193   175 1
  203   194   175 1
  204   195   160 1
  205   196   160 1
  206   197   158 1
  207   198   158 1
  208   199   158 1
  209   200   157 1
  210   201   157 1
  211   202   157 1
  212   203   156 1
  213   204   156 1
  214   205   156 1
  215   206   155 1
  216   207   155 1
  217   208   155 1
  218   209   154 1
  219   210   154 1
  220   211   154 1
  221   212   141 1
  222   213   146 1
  223   214   145 1
  224   215   142 1
  225   216   142 1
  226   217   174 1
  227   218   173 1
  228   219   171 1
  229   220   170 1
  230   221   169 1
  231   222   140 1
  232   223   167 1
  233   224   166 1
  234   225   165 1
  235   226   163 1
  236   227   161 1
  237   228   139 1
  238   229   139 1
  239   230   153 1
  240   231   152 1
  241   232   150 1
  242   233   149 1
  243   234   148 1
  244   235   162 1
  245   65    153 1
  246   65    174 1
@<TRIPOS>SUBSTRUCTURE
      1 CLA               1 ****               0 ****  **** 
      2 LUT             138 ****               0 ****  **** 
