@<TRIPOS>MOLECULE
Cpptraj generated mol2 file.
  235   246     2     0     0
SMALL
USER_CHARGES


@<TRIPOS>ATOM
      1 CAA        79.1570   59.2177   33.8271 a2         1 CLA     -0.055900
      2 CAB        79.0287   62.7882   42.6703 c8         1 CLA     -0.148500
      3 CAC        72.3566   58.3716   42.0524 a2         1 CLA     -0.012600
      4 CAD        75.0409   56.5671   34.6936 ck         1 CLA      0.398800
      5 NA         78.2477   59.3776   37.0621 ns         1 CLA     -0.225500
      6 CBA        80.3773   59.1922   32.7938 a2         1 CLA     -0.135000
      7 CBB        80.0569   63.5756   43.0320 c0         1 CLA     -0.395200
      8 CBC        72.4422   56.8144   41.9055 a3         1 CLA     -0.037700
      9 CBD        76.5044   57.0815   34.4542 a1         1 CLA     -0.053900
     10 NB         78.0490   60.7874   39.7729 nm         1 CLA     -0.295700
     11 OBD        74.4398   55.7674   33.9474 o2         1 CLA     -0.494600
     12 CGA        80.9537   57.9045   32.4290 c4         1 CLA      0.827000
     13 CGD        77.6065   56.0686   34.1518 c4         1 CLA      0.655300
     14 ND         75.4626   58.5012   37.6185 nm         1 CLA     -0.291600
     15 CED        78.3963   53.8627   34.8976 a3         1 CLA      0.005400
     16 CHA        76.8353   57.9571   35.6722 cs         1 CLA     -0.123800
     17 CHB        80.0520   60.5510   38.2383 aa         1 CLA     -0.291900
     18 CHC        76.6024   61.1983   41.6694 aa         1 CLA     -0.090400
     19 CHD        73.5519   58.3261   39.2290 aa         1 CLA     -0.052000
     20 CMA        81.5263   58.2228   36.6038 a3         1 CLA     -0.230700
     21 CMB        81.5127   61.9135   40.5940 a3         1 CLA     -0.180800
     22 CMC        74.1505   60.5661   43.6507 a3         1 CLA     -0.134000
     23 CMD        72.2402   56.6391   36.8639 a3         1 CLA     -0.141100
     24 C1         82.4259   56.1729   33.0626 a2         1 CLA      0.023000
     25 C1A        78.0645   58.5986   35.9831 ac         1 CLA     -0.015100
     26 C1B        79.3689   60.9739   39.4733 cr         1 CLA      0.054700
     27 C1C        75.4938   60.3914   41.3232 cn         1 CLA     -0.005600
     28 C1D        74.1572   58.0530   37.9721 ap         1 CLA     -0.047300
     29 O1A        80.7041   57.3367   31.3568 o2         1 CLA     -0.610800
     30 O1D        78.3439   56.0809   33.1888 o2         1 CLA     -0.558200
     31 C2         82.9343   55.5755   34.3674 c8         1 CLA     -0.325100
     32 C2A        79.3983   58.5338   35.2066 a1         1 CLA      0.098600
     33 C2B        80.0572   61.5868   40.5774 cb         1 CLA      0.088500
     34 C2C        74.4075   60.0086   42.2385 cb         1 CLA      0.053700
     35 C2D        73.5771   57.3192   36.8447 cb         1 CLA      0.058900
     36 O2A        81.8135   57.4414   33.4086 o1         1 CLA     -0.437200
     37 O2D        77.7130   55.1555   35.0995 o1         1 CLA     -0.357600
     38 C3         84.0911   54.8678   34.5902 c5         1 CLA      0.031200
     39 C3A        80.4656   59.2178   36.0931 a1         1 CLA      0.166800
     40 C3B        79.0231   61.9788   41.4696 cb         1 CLA      0.035000
     41 C3C        73.5701   59.1434   41.5544 cb         1 CLA     -0.089900
     42 C3D        74.6298   57.2062   35.8943 cb         1 CLA     -0.035900
     43 C4         84.0950   53.3539   34.4693 a3         1 CLA     -0.053300
     44 C4A        79.5542   59.7265   37.2024 ac         1 CLA      0.001800
     45 C4B        77.8068   61.3662   40.9897 cn         1 CLA     -0.020900
     46 C4C        74.1164   58.9836   40.2679 cr         1 CLA     -0.044400
     47 C4D        75.7253   57.9349   36.4323 c6         1 CLA     -0.046000
     48 C5         85.4711   55.5469   35.0682 a2         1 CLA     -0.070400
     49 C6         85.3896   56.8457   35.8055 a2         1 CLA      0.043900
     50 C7         84.9825   56.6127   37.2142 a2         1 CLA     -0.150000
     51 C8         84.9943   57.8282   38.1988 a1         1 CLA      0.064200
     52 C9         86.4449   58.1314   38.5315 a3         1 CLA     -0.259300
     53 C10        84.1815   57.5422   39.5360 a2         1 CLA     -0.071900
     54 C11        84.1665   58.5859   40.6221 a2         1 CLA      0.014500
     55 C12        83.4779   58.0966   41.9496 a2         1 CLA     -0.112100
     56 C13        83.2096   59.2117   43.0846 a1         1 CLA      0.089200
     57 C14        84.5981   60.0429   43.3706 a3         1 CLA     -0.239100
     58 C15        82.7505   58.6058   44.3881 a2         1 CLA     -0.102200
     59 C16        81.3524   57.9264   44.4230 a2         1 CLA      0.023900
     60 C17        80.1806   58.9200   44.4500 a2         1 CLA     -0.105700
     61 C18        78.7876   58.2500   44.6186 a1         1 CLA      0.206800
     62 C19        77.7080   59.2912   45.2069 a3         1 CLA     -0.280100
     63 C20        78.3971   57.6136   43.3074 a3         1 CLA     -0.280100
     64 NC         75.2902   59.7509   40.1838 nx         1 CLA     -0.309200
     65 MG         76.6421   59.7798   38.6055 mg         1 CLA      0.895000
     66 HMD3       72.2161   55.9978   36.0111 dc         1 CLA      0.064300
     67 HMD2       72.1006   56.1137   37.8092 dc         1 CLA      0.064300
     68 HMD1       71.4891   57.4508   36.7561 dc         1 CLA      0.064300
     69 HMC3       73.0865   60.4966   43.9632 dc         1 CLA      0.052100
     70 HMC2       74.6368   59.9837   44.3532 dc         1 CLA      0.052100
     71 HMC1       74.5330   61.5399   43.7813 dc         1 CLA      0.052100
     72 HMB3       81.6781   62.9732   40.2976 dc         1 CLA      0.063600
     73 HMB2       81.9587   61.7346   41.5251 dc         1 CLA      0.063600
     74 HMB1       82.1007   61.2405   39.9350 dc         1 CLA      0.063600
     75 HMA3       82.1303   58.0681   35.7552 dc         1 CLA      0.058300
     76 HMA2       82.0521   58.6989   37.4010 dc         1 CLA      0.058300
     77 HMA1       80.9546   57.3505   36.9602 dc         1 CLA      0.058300
     78 HED3       77.9998   53.2970   34.0173 dc         1 CLA      0.079300
     79 HED2       79.4441   54.1526   34.6704 dc         1 CLA      0.079300
     80 HED1       78.3597   53.1976   35.7851 dc         1 CLA      0.079300
     81 HBC3       71.6985   56.4894   42.6176 dc         1 CLA      0.016300
     82 HBC2       72.2840   56.5765   40.9229 dc         1 CLA      0.016300
     83 HBC1       73.3398   56.4817   42.3951 dc         1 CLA      0.016300
     84 HBB2       79.8323   64.3135   43.8858 da         1 CLA      0.183000
     85 HBB1       81.0065   63.7792   42.4778 da         1 CLA      0.183000
     86 HBA2       80.0878   59.7399   31.8690 dc         1 CLA      0.029400
     87 HBA1       81.1106   59.8115   33.3252 dc         1 CLA      0.029400
     88 HAC2       72.0938   58.6884   43.0975 dc         1 CLA      0.029300
     89 HAC1       71.5102   58.7500   41.4177 dc         1 CLA      0.029300
     90 HAA2       78.2455   58.8641   33.3505 dc         1 CLA      0.028700
     91 HAA1       78.8825   60.2543   34.0356 dc         1 CLA      0.028700
     92 H203       78.3825   58.3040   42.5265 dc         1 CLA      0.065600
     93 H202       79.0289   56.7786   43.1457 dc         1 CLA      0.065600
     94 H201       77.3989   57.2471   43.4237 dc         1 CLA      0.065600
     95 H193       76.8245   58.7339   45.2782 dc         1 CLA      0.065600
     96 H192       77.9666   59.5219   46.2127 dc         1 CLA      0.065600
     97 H191       77.7235   60.2345   44.7468 dc         1 CLA      0.065600
     98 H172       80.3001   59.5154   45.3459 dc         1 CLA      0.027600
     99 H171       80.3298   59.5911   43.5779 dc         1 CLA      0.027600
    100 H162       81.3181   57.2787   43.6559 dc         1 CLA      0.002900
    101 H161       81.3786   57.4003   45.3847 dc         1 CLA      0.002900
    102 H152       83.5121   57.8466   44.7794 dc         1 CLA      0.029100
    103 H151       82.7829   59.3403   45.1782 dc         1 CLA      0.029100
    104 H143       84.4971   60.7374   44.2036 dc         1 CLA      0.063600
    105 H142       85.4671   59.3813   43.5915 dc         1 CLA      0.063600
    106 H141       84.8276   60.7141   42.5747 dc         1 CLA      0.063600
    107 H122       82.5225   57.6336   41.6768 dc         1 CLA      0.032500
    108 H121       84.0354   57.2543   42.3249 dc         1 CLA      0.032500
    109 H112       85.1280   58.9700   40.8803 dc         1 CLA      0.006600
    110 H111       83.4982   59.3769   40.2374 dc         1 CLA      0.006600
    111 H102       83.1010   57.3151   39.2825 dc         1 CLA      0.024100
    112 H101       84.6717   56.5978   39.7974 dc         1 CLA      0.024100
    113 HHD        72.5552   57.9220   39.3356 da         1 CLA      0.174300
    114 HHC        76.5165   61.4556   42.7095 da         1 CLA      0.136800
    115 HHB        81.0537   60.8295   38.0718 da         1 CLA      0.138300
    116 HBD        76.4304   57.7074   33.6379 dc         1 CLA      0.107700
    117 HAB        78.0616   62.8161   43.1759 da         1 CLA      0.155200
    118 H93        86.8880   58.6087   37.7010 dc         1 CLA      0.069500
    119 H92        86.5542   58.7582   39.4007 dc         1 CLA      0.069500
    120 H91        87.0251   57.2465   38.7468 dc         1 CLA      0.069500
    121 H8         84.5250   58.7175   37.7999 dc         1 CLA      0.029300
    122 H72        84.0174   56.1525   37.1399 dc         1 CLA      0.044400
    123 H71        85.6932   55.8554   37.5910 dc         1 CLA      0.044400
    124 H62        86.4431   57.2664   35.7821 dc         1 CLA      0.015600
    125 H61        84.6488   57.4099   35.3463 dc         1 CLA      0.015600
    126 H52        86.1553   54.8961   35.6367 dc         1 CLA      0.033200
    127 H51        85.9629   55.8528   34.1291 dc         1 CLA      0.033200
    128 H43        83.8954   53.1505   33.4142 dc         1 CLA      0.037000
    129 H42        85.0956   53.0197   34.6067 dc         1 CLA      0.037000
    130 H41        83.3485   52.8875   35.1506 dc         1 CLA      0.037000
    131 H3A        80.9415   60.1398   35.6742 dc         1 CLA      0.041100
    132 H2A        79.4740   57.4434   35.1079 dc         1 CLA      0.083100
    133 H2         82.2822   55.8207   35.2472 da         1 CLA      0.180900
    134 H18        78.9756   57.4415   45.3029 dc         1 CLA     -0.003900
    135 H13        82.3954   59.8054   42.7074 dc         1 CLA      0.019700
    136 H12        81.8320   55.3573   32.6474 dc         1 CLA      0.120400
    137 H11        83.2936   56.1815   32.4362 dc         1 CLA      0.120400
    138 C1         68.9470   61.7024   49.9336 Z1         2 LUT      0.509236
    139 C2         67.6942   61.5156   50.7623 Z2         2 LUT     -0.434695
    140 C3         66.7668   62.6931   51.0658 Z3         2 LUT      0.437453
    141 O3         66.5747   62.7336   52.5072 S1         2 LUT     -0.547129
    142 C4         67.2490   64.0054   50.3576 Z4         2 LUT     -0.468603
    143 C5         67.8830   63.7721   48.9994 Z5         2 LUT      0.279246
    144 C6         68.7351   62.7747   48.8020 Z6         2 LUT     -0.305473
    145 C7         69.1828   62.2602   47.4893 Z7         2 LUT      0.069402
    146 C8         70.1916   62.7761   46.8139 Z8         2 LUT     -0.191631
    147 C9         70.7263   62.4959   45.5298 Z9         2 LUT      0.196698
    148 C10        71.7141   63.3688   45.0095 Y1         2 LUT     -0.208611
    149 C11        72.4479   63.2878   43.6989 Y2         2 LUT      0.030784
    150 C12        73.4594   64.0921   43.3891 Y3         2 LUT     -0.220316
    151 C13        74.2448   64.0793   42.2409 Y4         2 LUT      0.215937
    152 C14        75.3749   64.8527   42.2668 Y5         2 LUT     -0.185793
    153 C15        76.4722   64.8301   41.3059 Y6         2 LUT     -0.057835
    154 C16        69.4661   60.3709   49.5441 Y7         2 LUT     -0.405615
    155 C17        70.0518   62.3013   50.8204 Y7         2 LUT     -0.405615
    156 C18        67.2985   64.7203   48.0299 Y9         2 LUT     -0.369639
    157 C19        70.1627   61.3341   44.6851 W1         2 LUT     -0.333362
    158 C20        73.6980   63.5830   40.9461 W2         2 LUT     -0.323439
    159 C21        87.8459   66.1331   34.8308 Z1         2 LUT      0.406104
    160 C22        88.4278   65.8394   33.4682 Z2         2 LUT     -0.404965
    161 C23        88.3840   66.8377   32.3735 Z3         2 LUT      0.391255
    162 O23        88.8615   66.0903   31.2636 S1         2 LUT     -0.528210
    163 C24        87.0150   67.5685   32.4101 W6         2 LUT     -0.258361
    164 C25        86.1073   67.4581   33.3713 Z5         2 LUT      0.133546
    165 C26        86.3481   66.5990   34.6164 W8         2 LUT     -0.147008
    166 C27        85.6228   67.1450   35.8112 Z7         2 LUT      0.023843
    167 C28        84.3826   66.8189   36.1994 Z8         2 LUT     -0.216987
    168 C29        83.6751   67.2488   37.3975 Z9         2 LUT      0.206524
    169 C30        82.5743   66.4671   37.7150 Y1         2 LUT     -0.215556
    170 C31        81.8157   66.6222   38.9492 Y2         2 LUT      0.025142
    171 C32        80.7122   65.9809   39.2533 Y3         2 LUT     -0.212209
    172 C33        79.9509   66.0950   40.4755 Y4         2 LUT      0.240937
    173 C34        78.6915   65.4253   40.4666 Y5         2 LUT     -0.218862
    174 C35        77.6790   65.4634   41.5065 Y6         2 LUT     -0.023547
    175 C36        88.5784   67.4101   35.3382 Y7         2 LUT     -0.393485
    176 C37        88.0098   64.9762   35.8236 Y7         2 LUT     -0.393485
    177 C38        84.7968   68.1626   33.3015 Y9         2 LUT     -0.387526
    178 C39        84.1615   68.4110   38.2117 W1         2 LUT     -0.322618
    179 C40        80.3484   67.2188   41.4504 W2         2 LUT     -0.358472
    180 H403       79.7317   67.3829   42.2777 R7         2 LUT      0.097720
    181 H402       81.3664   67.0432   41.8692 R7         2 LUT      0.097720
    182 H401       80.4503   68.1632   40.9277 R7         2 LUT      0.097720
    183 H393       84.9652   68.0522   38.8223 R4         2 LUT      0.082505
    184 H392       84.6280   69.1436   37.5772 R4         2 LUT      0.082505
    185 H391       83.3708   68.8080   38.7630 R4         2 LUT      0.082505
    186 H383       84.5191   68.3155   32.1976 R1         2 LUT      0.104030
    187 H382       83.9701   67.5399   33.5908 R1         2 LUT      0.104030
    188 H381       84.9188   69.0392   33.9292 R1         2 LUT      0.104030
    189 H373       87.5649   64.0430   35.4647 T4         2 LUT      0.089537
    190 H372       89.0489   64.8546   36.1804 T4         2 LUT      0.089537
    191 H371       87.4717   65.0815   36.7845 T4         2 LUT      0.089537
    192 H363       88.2299   68.3189   34.7586 T4         2 LUT      0.089537
    193 H362       88.2674   67.6834   36.3790 T4         2 LUT      0.089537
    194 H361       89.7024   67.2513   35.4212 T4         2 LUT      0.089537
    195 H222       89.4576   65.5849   33.5789 U2         2 LUT      0.127376
    196 H221       87.8766   64.9977   33.0534 U2         2 LUT      0.127376
    197 H203       73.7777   62.5561   40.7389 R7         2 LUT      0.087068
    198 H202       72.6070   63.7307   41.0377 R7         2 LUT      0.087068
    199 H201       74.1423   64.2180   40.2327 R7         2 LUT      0.087068
    200 H193       69.3291   61.7670   44.0346 R4         2 LUT      0.089716
    201 H192       70.9141   60.9086   44.0398 R4         2 LUT      0.089716
    202 H191       69.7884   60.4198   45.2809 R4         2 LUT      0.089716
    203 H183       67.2043   65.7901   48.3225 R1         2 LUT      0.094572
    204 H182       67.8520   64.6043   47.0387 R1         2 LUT      0.094572
    205 H181       66.2463   64.4559   47.9098 R1         2 LUT      0.094572
    206 H173       70.3889   61.5681   51.5870 T4         2 LUT      0.093752
    207 H172       70.9187   62.6708   50.1974 T4         2 LUT      0.093752
    208 H171       69.6504   63.0745   51.4625 T4         2 LUT      0.093752
    209 H163       68.8215   59.7497   48.8277 T4         2 LUT      0.093752
    210 H162       70.5123   60.4616   49.0291 T4         2 LUT      0.093752
    211 H161       69.6084   59.7537   50.4302 T4         2 LUT      0.093752
    212 HO3        67.2686   63.1128   53.0181 Q1         2 LUT      0.300121
    213 H8         70.5598   63.5844   47.3296 U7         2 LUT      0.080784
    214 H7         68.6857   61.3923   46.9942 U6         2 LUT      0.042190
    215 H42        66.3346   64.5542   50.1985 U5         2 LUT      0.145166
    216 H41        67.9046   64.5488   50.9816 U5         2 LUT      0.145166
    217 H35        77.8939   65.9559   42.4273 T3         2 LUT      0.077919
    218 H34        78.4295   64.7480   39.6837 T2         2 LUT      0.073626
    219 H32        80.3092   65.2851   38.5110 T1         2 LUT      0.092510
    220 H31        82.2556   67.2837   39.6504 U9         2 LUT      0.070048
    221 H30        82.3296   65.6041   37.0282 U8         2 LUT      0.085442
    222 H3         65.7701   62.4257   50.6266 U3         2 LUT     -0.031596
    223 H28        84.0127   65.9753   35.6610 U7         2 LUT      0.084728
    224 H27        86.1504   67.9434   36.2644 U6         2 LUT      0.087291
    225 H26        85.8264   65.6688   34.3336 Q6         2 LUT      0.075325
    226 H24        86.8123   68.2956   31.6564 Q5         2 LUT      0.094482
    227 H23        89.1342   67.6618   32.6885 U3         2 LUT     -0.024869
    228 H22        67.0562   60.8441   50.3179 U2         2 LUT      0.127376
    229 H21        67.8536   60.9937   51.7305 U2         2 LUT      0.127376
    230 H15        76.3612   64.2466   40.3752 T3         2 LUT      0.093200
    231 H14        75.6810   65.3330   43.1898 T2         2 LUT      0.068865
    232 H12        73.8019   64.6877   44.2997 T1         2 LUT      0.095507
    233 H11        72.1187   62.5388   42.9226 U9         2 LUT      0.068930
    234 H10        71.9673   64.2299   45.6223 U8         2 LUT      0.083911
    235 H1         88.4264   66.3855   30.4683 Q1         2 LUT      0.297311
@<TRIPOS>BOND
    1     6     1 1
    2     7     2 1
    3     8     3 1
    4     9     4 1
    5    11     4 1
    6    12     6 1
    7    13     9 1
    8    16     9 1
    9    25     5 1
   10    25    16 1
   11    26    10 1
   12    26    17 1
   13    27    18 1
   14    28    14 1
   15    28    19 1
   16    29    12 1
   17    30    13 1
   18    31    24 1
   19    32     1 1
   20    32    25 1
   21    33    21 1
   22    33    26 1
   23    34    22 1
   24    34    27 1
   25    35    23 1
   26    35    28 1
   27    36    12 1
   28    36    24 1
   29    37    13 1
   30    37    15 1
   31    38    31 1
   32    39    20 1
   33    39    32 1
   34    40     2 1
   35    40    33 1
   36    41     3 1
   37    41    34 1
   38    42     4 1
   39    42    35 1
   40    43    38 1
   41    44     5 1
   42    44    17 1
   43    44    39 1
   44    45    10 1
   45    45    18 1
   46    45    40 1
   47    46    19 1
   48    46    41 1
   49    47    14 1
   50    47    16 1
   51    47    42 1
   52    48    38 1
   53    49    48 1
   54    50    49 1
   55    51    50 1
   56    52    51 1
   57    53    51 1
   58    54    53 1
   59    55    54 1
   60    56    55 1
   61    57    56 1
   62    58    56 1
   63    59    58 1
   64    60    59 1
   65    61    60 1
   66    62    61 1
   67    63    61 1
   68    64    27 1
   69    64    46 1
   70    65     5 1
   71    65    10 1
   72    65    64 1
   73    65    14 1
   74    66    23 1
   75    67    23 1
   76    68    23 1
   77    69    22 1
   78    70    22 1
   79    71    22 1
   80    72    21 1
   81    73    21 1
   82    74    21 1
   83    75    20 1
   84    76    20 1
   85    77    20 1
   86    78    15 1
   87    79    15 1
   88    80    15 1
   89    81     8 1
   90    82     8 1
   91    83     8 1
   92    84     7 1
   93    85     7 1
   94    86     6 1
   95    87     6 1
   96    88     3 1
   97    89     3 1
   98    90     1 1
   99    91     1 1
  100    92    63 1
  101    93    63 1
  102    94    63 1
  103    95    62 1
  104    96    62 1
  105    97    62 1
  106    98    60 1
  107    99    60 1
  108   100    59 1
  109   101    59 1
  110   102    58 1
  111   103    58 1
  112   104    57 1
  113   105    57 1
  114   106    57 1
  115   107    55 1
  116   108    55 1
  117   109    54 1
  118   110    54 1
  119   111    53 1
  120   112    53 1
  121   113    19 1
  122   114    18 1
  123   115    17 1
  124   116     9 1
  125   117     2 1
  126   118    52 1
  127   119    52 1
  128   120    52 1
  129   121    51 1
  130   122    50 1
  131   123    50 1
  132   124    49 1
  133   125    49 1
  134   126    48 1
  135   127    48 1
  136   128    43 1
  137   129    43 1
  138   130    43 1
  139   131    39 1
  140   132    32 1
  141   133    31 1
  142   134    61 1
  143   135    56 1
  144   136    24 1
  145   137    24 1
  146   139   138 1
  147   140   139 1
  148   141   140 1
  149   142   140 1
  150   143   142 1
  151   144   138 1
  152   144   143 1
  153   145   144 1
  154   146   145 1
  155   147   146 1
  156   148   147 1
  157   149   148 1
  158   150   149 1
  159   151   150 1
  160   152   151 1
  161   153   152 1
  162   154   138 1
  163   155   138 1
  164   156   143 1
  165   157   147 1
  166   158   151 1
  167   160   159 1
  168   161   160 1
  169   162   161 1
  170   163   161 1
  171   164   163 1
  172   165   159 1
  173   165   164 1
  174   166   165 1
  175   167   166 1
  176   168   167 1
  177   169   168 1
  178   170   169 1
  179   171   170 1
  180   172   171 1
  181   173   172 1
  182   174   153 1
  183   174   173 1
  184   175   159 1
  185   176   159 1
  186   177   164 1
  187   178   168 1
  188   179   172 1
  189   180   179 1
  190   181   179 1
  191   182   179 1
  192   183   178 1
  193   184   178 1
  194   185   178 1
  195   186   177 1
  196   187   177 1
  197   188   177 1
  198   189   176 1
  199   190   176 1
  200   191   176 1
  201   192   175 1
  202   193   175 1
  203   194   175 1
  204   195   160 1
  205   196   160 1
  206   197   158 1
  207   198   158 1
  208   199   158 1
  209   200   157 1
  210   201   157 1
  211   202   157 1
  212   203   156 1
  213   204   156 1
  214   205   156 1
  215   206   155 1
  216   207   155 1
  217   208   155 1
  218   209   154 1
  219   210   154 1
  220   211   154 1
  221   212   141 1
  222   213   146 1
  223   214   145 1
  224   215   142 1
  225   216   142 1
  226   217   174 1
  227   218   173 1
  228   219   171 1
  229   220   170 1
  230   221   169 1
  231   222   140 1
  232   223   167 1
  233   224   166 1
  234   225   165 1
  235   226   163 1
  236   227   161 1
  237   228   139 1
  238   229   139 1
  239   230   153 1
  240   231   152 1
  241   232   150 1
  242   233   149 1
  243   234   148 1
  244   235   162 1
  245   65    153 1
  246   65    174 1
@<TRIPOS>SUBSTRUCTURE
      1 CLA               1 ****               0 ****  **** 
      2 LUT             138 ****               0 ****  **** 
