@<TRIPOS>MOLECULE
Cpptraj generated mol2 file.
  235   246     2     0     0
SMALL
USER_CHARGES


@<TRIPOS>ATOM
      1 CAA        78.9090   57.1838   35.0808 a2         1 CLA     -0.055900
      2 CAB        78.5416   61.7204   43.8131 c8         1 CLA     -0.148500
      3 CAC        71.9532   56.8857   43.7840 a2         1 CLA     -0.012600
      4 CAD        74.7771   54.5655   36.5033 ck         1 CLA      0.398800
      5 NA         77.8486   57.6504   38.5665 ns         1 CLA     -0.225500
      6 CBA        80.2590   57.0604   34.3203 a2         1 CLA     -0.135000
      7 CBB        79.6101   61.8775   44.6311 c0         1 CLA     -0.395200
      8 CBC        72.1189   55.3739   43.8997 a3         1 CLA     -0.037700
      9 CBD        76.0877   55.1651   36.1440 a1         1 CLA     -0.053900
     10 NB         77.4939   59.4104   40.9817 nm         1 CLA     -0.295700
     11 OBD        74.1473   53.7536   35.8535 o2         1 CLA     -0.494600
     12 CGA        80.7027   55.6328   34.0038 c4         1 CLA      0.827000
     13 CGD        77.0503   54.1060   35.7087 c4         1 CLA      0.655300
     14 ND         75.0894   56.7329   39.3052 nm         1 CLA     -0.291600
     15 CED        77.8823   51.8967   36.2717 a3         1 CLA      0.005400
     16 CHA        76.4912   56.1086   37.2631 cs         1 CLA     -0.123800
     17 CHB        79.4923   59.1449   39.5641 aa         1 CLA     -0.291900
     18 CHC        76.2421   59.7539   43.0256 aa         1 CLA     -0.090400
     19 CHD        73.2300   56.6167   40.8109 aa         1 CLA     -0.052000
     20 CMA        81.1973   56.9636   38.0115 a3         1 CLA     -0.230700
     21 CMB        80.6326   61.4000   41.2089 a3         1 CLA     -0.180800
     22 CMC        73.8922   59.1642   45.2394 a3         1 CLA     -0.134000
     23 CMD        72.0763   54.6556   38.7618 a3         1 CLA     -0.141100
     24 C1         81.3409   53.5360   35.1686 a2         1 CLA      0.023000
     25 C1A        77.7157   56.8530   37.5084 ac         1 CLA     -0.015100
     26 C1B        78.7773   59.6710   40.6347 cr         1 CLA      0.054700
     27 C1C        75.1240   58.8919   42.8587 cn         1 CLA     -0.005600
     28 C1D        73.7499   56.3601   39.5681 ap         1 CLA     -0.047300
     29 O1A        80.4696   54.9730   33.0137 o2         1 CLA     -0.610800
     30 O1D        77.4791   54.0361   34.5581 o2         1 CLA     -0.558200
     31 C2         81.6733   53.1166   36.5850 c8         1 CLA     -0.325100
     32 C2A        79.0005   56.7505   36.6008 a1         1 CLA      0.098600
     33 C2B        79.3674   60.6680   41.5373 cb         1 CLA      0.088500
     34 C2C        74.0256   58.6033   43.8063 cb         1 CLA      0.053700
     35 C2D        73.3459   55.3794   38.6580 cb         1 CLA      0.058900
     36 O2A        81.2353   55.0209   35.1255 o1         1 CLA     -0.437200
     37 O2D        77.2217   53.1246   36.7094 o1         1 CLA     -0.357600
     38 C3         82.9462   52.8406   36.9882 c5         1 CLA      0.031200
     39 C3A        79.9752   57.7037   37.4523 a1         1 CLA      0.166800
     40 C3B        78.4368   60.8653   42.5625 cb         1 CLA      0.035000
     41 C3C        73.1983   57.6313   43.1344 cb         1 CLA     -0.089900
     42 C3D        74.3946   55.2921   37.6745 cb         1 CLA     -0.035900
     43 C4         83.4732   51.4255   36.9346 a3         1 CLA     -0.053300
     44 C4A        79.0677   58.2058   38.5945 ac         1 CLA      0.001800
     45 C4B        77.3132   60.0185   42.2109 cn         1 CLA     -0.020900
     46 C4C        73.7705   57.4388   41.8832 cr         1 CLA     -0.044400
     47 C4D        75.4311   56.0241   38.2243 c6         1 CLA     -0.046000
     48 C5         83.9518   53.8136   37.5102 a2         1 CLA     -0.070400
     49 C6         83.8339   54.0408   39.0613 a2         1 CLA      0.043900
     50 C7         84.9025   54.8169   39.7122 a2         1 CLA     -0.150000
     51 C8         84.8525   56.2968   39.1581 a1         1 CLA      0.064200
     52 C9         86.1227   56.6008   38.2438 a3         1 CLA     -0.259300
     53 C10        84.8604   57.3117   40.3521 a2         1 CLA     -0.071900
     54 C11        83.6765   57.3026   41.3773 a2         1 CLA      0.014500
     55 C12        83.9696   58.3253   42.5249 a2         1 CLA     -0.112100
     56 C13        84.8589   57.8923   43.7384 a1         1 CLA      0.089200
     57 C14        84.4253   56.6441   44.5383 a3         1 CLA     -0.239100
     58 C15        85.0576   59.1950   44.6165 a2         1 CLA     -0.102200
     59 C16        83.8849   59.8591   45.2908 a2         1 CLA      0.023900
     60 C17        84.4482   61.1962   45.9016 a2         1 CLA     -0.105700
     61 C18        83.4157   62.0996   46.5123 a1         1 CLA      0.206800
     62 C19        82.2452   61.3182   47.1806 a3         1 CLA     -0.280100
     63 C20        84.1372   63.0681   47.4925 a3         1 CLA     -0.280100
     64 NC         74.9221   58.1700   41.6847 nx         1 CLA     -0.309200
     65 MG         76.1988   58.0775   40.0490 mg         1 CLA      0.895000
     66 HMD3       72.0739   53.9106   39.6068 dc         1 CLA      0.064300
     67 HMD2       71.2270   55.2956   38.6976 dc         1 CLA      0.064300
     68 HMD1       71.9980   54.1296   37.8690 dc         1 CLA      0.064300
     69 HMC3       73.8840   58.3385   45.9545 dc         1 CLA      0.052100
     70 HMC2       74.7885   59.8096   45.3065 dc         1 CLA      0.052100
     71 HMC1       72.9722   59.7347   45.3298 dc         1 CLA      0.052100
     72 HMB3       80.8130   62.0680   42.0238 dc         1 CLA      0.063600
     73 HMB2       81.4880   60.7357   41.1488 dc         1 CLA      0.063600
     74 HMB1       80.4849   61.8927   40.2700 dc         1 CLA      0.063600
     75 HMA3       81.7846   57.6127   38.5836 dc         1 CLA      0.058300
     76 HMA2       80.6985   56.2218   38.6830 dc         1 CLA      0.058300
     77 HMA1       81.6834   56.4780   37.1556 dc         1 CLA      0.058300
     78 HED3       77.0976   51.3928   35.7343 dc         1 CLA      0.079300
     79 HED2       78.7559   52.0092   35.6271 dc         1 CLA      0.079300
     80 HED1       78.2076   51.3214   37.0974 dc         1 CLA      0.079300
     81 HBC3       71.4116   54.9651   44.5597 dc         1 CLA      0.016300
     82 HBC2       72.2610   54.8894   42.9296 dc         1 CLA      0.016300
     83 HBC1       72.9620   55.1357   44.4446 dc         1 CLA      0.016300
     84 HBB2       79.5315   62.5953   45.4136 da         1 CLA      0.183000
     85 HBB1       80.5595   61.3404   44.4748 da         1 CLA      0.183000
     86 HBA2       80.1402   57.6170   33.3836 dc         1 CLA      0.029400
     87 HBA1       81.0751   57.5195   34.8151 dc         1 CLA      0.029400
     88 HAC2       71.7439   57.3252   44.7419 dc         1 CLA      0.029300
     89 HAC1       71.0164   57.2059   43.2207 dc         1 CLA      0.029300
     90 HAA2       78.1477   56.6681   34.5091 dc         1 CLA      0.028700
     91 HAA1       78.5661   58.1953   35.0526 dc         1 CLA      0.028700
     92 H203       84.7551   62.5791   48.2525 dc         1 CLA      0.065600
     93 H202       84.8893   63.7758   47.0594 dc         1 CLA      0.065600
     94 H201       83.3056   63.7023   47.9041 dc         1 CLA      0.065600
     95 H193       81.6425   60.7279   46.4643 dc         1 CLA      0.065600
     96 H192       82.5564   60.8465   48.0417 dc         1 CLA      0.065600
     97 H191       81.5688   62.0908   47.4983 dc         1 CLA      0.065600
     98 H172       85.3459   60.9294   46.5547 dc         1 CLA      0.027600
     99 H171       84.8036   61.8013   45.0849 dc         1 CLA      0.027600
    100 H162       83.0919   60.1333   44.6206 dc         1 CLA      0.002900
    101 H161       83.3733   59.2903   45.9773 dc         1 CLA      0.002900
    102 H152       85.7474   58.9279   45.4530 dc         1 CLA      0.029100
    103 H151       85.4455   59.9388   43.9270 dc         1 CLA      0.029100
    104 H143       85.2678   56.5106   45.2824 dc         1 CLA      0.063600
    105 H142       83.4988   56.6686   45.0688 dc         1 CLA      0.063600
    106 H141       84.4323   55.7274   43.9126 dc         1 CLA      0.063600
    107 H122       84.2807   59.1880   41.9085 dc         1 CLA      0.032500
    108 H121       82.9610   58.6539   42.8790 dc         1 CLA      0.032500
    109 H112       82.7929   57.7069   40.9192 dc         1 CLA      0.006600
    110 H111       83.4792   56.2920   41.7773 dc         1 CLA      0.006600
    111 H102       85.8094   57.1018   40.8739 dc         1 CLA      0.024100
    112 H101       84.9136   58.3150   39.9242 dc         1 CLA      0.024100
    113 HHD        72.2825   56.1556   41.1445 da         1 CLA      0.174300
    114 HHC        76.3949   60.3410   43.8986 da         1 CLA      0.136800
    115 HHB        80.5220   59.3814   39.4940 da         1 CLA      0.138300
    116 HBD        75.8661   55.7834   35.3061 dc         1 CLA      0.107700
    117 HAB        77.6608   62.3059   44.0464 da         1 CLA      0.155200
    118 H93        86.1861   57.6459   37.8913 dc         1 CLA      0.069500
    119 H92        86.9981   56.2654   38.7106 dc         1 CLA      0.069500
    120 H91        85.9753   55.8971   37.4286 dc         1 CLA      0.069500
    121 H8         83.9117   56.4914   38.5734 dc         1 CLA      0.029300
    122 H72        84.7297   54.7118   40.7310 dc         1 CLA      0.044400
    123 H71        85.8371   54.3381   39.3881 dc         1 CLA      0.044400
    124 H62        82.9332   54.5691   39.3806 dc         1 CLA      0.015600
    125 H61        83.8263   53.0817   39.4807 dc         1 CLA      0.015600
    126 H52        84.9803   53.4118   37.3432 dc         1 CLA      0.033200
    127 H51        83.8793   54.7799   37.0415 dc         1 CLA      0.033200
    128 H43        84.2372   51.3195   36.1957 dc         1 CLA      0.037000
    129 H42        83.9577   51.1789   37.8788 dc         1 CLA      0.037000
    130 H41        82.6838   50.6940   36.8937 dc         1 CLA      0.037000
    131 H3A        80.2216   58.6377   36.9519 dc         1 CLA      0.041100
    132 H2A        79.3245   55.7229   36.6415 dc         1 CLA      0.083100
    133 H2         80.9202   53.0223   37.3942 da         1 CLA      0.180900
    134 H18        82.8883   62.7584   45.7705 dc         1 CLA     -0.003900
    135 H13        85.8605   57.7294   43.3892 dc         1 CLA      0.019700
    136 H12        80.4264   53.1659   34.7379 dc         1 CLA      0.120400
    137 H11        82.0354   53.1076   34.4705 dc         1 CLA      0.120400
    138 C1         68.6160   60.9210   50.5295 Z1         2 LUT      0.509236
    139 C2         67.5158   60.7338   51.6132 Z2         2 LUT     -0.434695
    140 C3         66.4264   61.8329   51.5847 Z3         2 LUT      0.437453
    141 O3         65.8721   62.0042   52.8963 S1         2 LUT     -0.547129
    142 C4         66.8085   63.1448   50.9286 Z4         2 LUT     -0.468603
    143 C5         67.3180   62.8384   49.5866 Z5         2 LUT      0.279246
    144 C6         68.2166   61.8552   49.3313 Z6         2 LUT     -0.305473
    145 C7         68.4803   61.3756   47.9502 Z7         2 LUT      0.069402
    146 C8         69.6713   61.4198   47.3961 Z8         2 LUT     -0.191631
    147 C9         70.2093   61.0302   46.0737 Z9         2 LUT      0.196698
    148 C10        71.2251   61.7402   45.4883 Y1         2 LUT     -0.208611
    149 C11        71.8302   61.5278   44.1883 Y2         2 LUT      0.030784
    150 C12        72.7973   62.4206   43.8045 Y3         2 LUT     -0.220316
    151 C13        73.6774   62.3315   42.6674 Y4         2 LUT      0.215937
    152 C14        74.8862   63.0925   42.6894 Y5         2 LUT     -0.185793
    153 C15        75.9463   63.1403   41.7242 Y6         2 LUT     -0.057835
    154 C16        69.1598   59.5188   50.1511 Y7         2 LUT     -0.405615
    155 C17        69.8550   61.5031   51.3680 Y7         2 LUT     -0.405615
    156 C18        66.5095   63.5310   48.5428 Y9         2 LUT     -0.369639
    157 C19        69.5844   59.8439   45.4371 W1         2 LUT     -0.333362
    158 C20        73.3364   61.3606   41.5270 W2         2 LUT     -0.323439
    159 C21        87.1769   64.4039   35.5808 Z1         2 LUT      0.406104
    160 C22        88.0916   64.0690   34.5117 Z2         2 LUT     -0.404965
    161 C23        88.2577   64.9052   33.2693 Z3         2 LUT      0.391255
    162 O23        89.0816   64.1769   32.3223 S1         2 LUT     -0.528210
    163 C24        86.9990   65.6280   32.8944 W6         2 LUT     -0.258361
    164 C25        85.9305   65.7095   33.6769 Z5         2 LUT      0.133546
    165 C26        85.7744   64.9412   34.9903 W8         2 LUT     -0.147008
    166 C27        84.9144   65.6717   35.9532 Z7         2 LUT      0.023843
    167 C28        83.7539   65.1907   36.5059 Z8         2 LUT     -0.216987
    168 C29        83.2183   65.6411   37.7588 Z9         2 LUT      0.206524
    169 C30        82.0971   65.0538   38.3155 Y1         2 LUT     -0.215556
    170 C31        81.4659   65.1238   39.6580 Y2         2 LUT      0.025142
    171 C32        80.2183   64.5218   39.8374 Y3         2 LUT     -0.212209
    172 C33        79.3521   64.5935   40.9780 Y4         2 LUT      0.240937
    173 C34        78.1541   63.9241   40.9898 Y5         2 LUT     -0.218862
    174 C35        77.0668   63.9136   41.8679 Y6         2 LUT     -0.023547
    175 C36        87.8237   65.5055   36.3428 Y7         2 LUT     -0.393485
    176 C37        87.0255   63.1670   36.4696 Y7         2 LUT     -0.393485
    177 C38        84.6268   66.3077   33.1989 Y9         2 LUT     -0.387526
    178 C39        83.8510   66.7097   38.5414 W1         2 LUT     -0.322618
    179 C40        79.8066   65.3423   42.1912 W2         2 LUT     -0.358472
    180 H403       80.6136   64.9322   42.7763 R7         2 LUT      0.097720
    181 H402       80.0843   66.4109   41.8666 R7         2 LUT      0.097720
    182 H401       79.0126   65.2947   42.9313 R7         2 LUT      0.097720
    183 H393       83.2635   67.6076   38.4792 R4         2 LUT      0.082505
    184 H392       83.9520   66.4295   39.5744 R4         2 LUT      0.082505
    185 H391       84.8210   66.8554   38.2139 R4         2 LUT      0.082505
    186 H383       84.2721   67.0829   33.8641 R1         2 LUT      0.104030
    187 H382       84.6814   66.9244   32.2883 R1         2 LUT      0.104030
    188 H381       83.8128   65.6038   32.9966 R1         2 LUT      0.104030
    189 H373       87.9619   62.8558   36.9322 T4         2 LUT      0.089537
    190 H372       86.3166   63.5719   37.1929 T4         2 LUT      0.089537
    191 H371       86.5672   62.3241   35.9860 T4         2 LUT      0.089537
    192 H363       87.3953   65.5931   37.3455 T4         2 LUT      0.089537
    193 H362       88.8439   65.1762   36.5973 T4         2 LUT      0.089537
    194 H361       87.8475   66.4544   35.8028 T4         2 LUT      0.089537
    195 H222       89.0420   63.7826   34.8885 U2         2 LUT      0.127376
    196 H221       87.6718   63.1731   34.1400 U2         2 LUT      0.127376
    197 H203       73.2497   60.3483   41.9480 R7         2 LUT      0.087068
    198 H202       72.3735   61.5057   40.9809 R7         2 LUT      0.087068
    199 H201       74.0475   61.2018   40.7708 R7         2 LUT      0.087068
    200 H193       70.2797   59.0218   45.2391 R4         2 LUT      0.089716
    201 H192       68.8254   59.4605   46.0711 R4         2 LUT      0.089716
    202 H191       68.9037   60.0464   44.6297 R4         2 LUT      0.089716
    203 H183       65.4683   63.2152   48.6619 R1         2 LUT      0.094572
    204 H182       66.7951   64.5524   48.6870 R1         2 LUT      0.094572
    205 H181       66.7327   63.1612   47.5635 R1         2 LUT      0.094572
    206 H173       70.1421   61.1336   52.3413 T4         2 LUT      0.093752
    207 H172       70.8233   61.6472   50.7591 T4         2 LUT      0.093752
    208 H171       69.5705   62.6007   51.5518 T4         2 LUT      0.093752
    209 H163       69.3022   58.8520   51.0307 T4         2 LUT      0.093752
    210 H162       68.4435   59.0472   49.4310 T4         2 LUT      0.093752
    211 H161       70.0935   59.5990   49.6025 T4         2 LUT      0.093752
    212 HO3        66.5466   62.1236   53.5455 Q1         2 LUT      0.300121
    213 H8         70.3901   61.9616   47.9675 U7         2 LUT      0.080784
    214 H7         67.6693   61.1228   47.2814 U6         2 LUT      0.042190
    215 H42        65.8676   63.7634   50.9889 U5         2 LUT      0.145166
    216 H41        67.5552   63.6553   51.5725 U5         2 LUT      0.145166
    217 H35        77.1233   64.5423   42.8038 T3         2 LUT      0.077919
    218 H34        78.1616   63.2337   40.1519 T2         2 LUT      0.073626
    219 H32        79.7273   64.0096   39.0125 T1         2 LUT      0.092510
    220 H31        81.6528   65.7883   40.4313 U9         2 LUT      0.070048
    221 H30        81.7360   64.1806   37.6852 U8         2 LUT      0.085442
    222 H3         65.6241   61.4186   50.9379 U3         2 LUT     -0.031596
    223 H28        83.3972   64.2663   36.0793 U7         2 LUT      0.084728
    224 H27        85.4805   66.5531   36.2094 U6         2 LUT      0.087291
    225 H26        85.3119   64.0315   34.5447 Q6         2 LUT      0.075325
    226 H24        87.0228   66.1516   31.9412 Q5         2 LUT      0.094482
    227 H23        88.9201   65.7460   33.4985 U3         2 LUT     -0.024869
    228 H22        66.9964   59.7910   51.2805 U2         2 LUT      0.127376
    229 H21        67.9903   60.4930   52.6489 U2         2 LUT      0.127376
    230 H15        76.0411   62.5958   40.7573 T3         2 LUT      0.093200
    231 H14        75.0556   63.7748   43.5442 T2         2 LUT      0.068865
    232 H12        73.0796   63.2623   44.4671 T1         2 LUT      0.095507
    233 H11        71.5648   60.5968   43.5771 U9         2 LUT      0.068930
    234 H10        71.5208   62.6412   46.0296 U8         2 LUT      0.083911
    235 H1         88.5268   63.7225   31.6663 Q1         2 LUT      0.297311
@<TRIPOS>BOND
    1     6     1 1
    2     7     2 1
    3     8     3 1
    4     9     4 1
    5    11     4 1
    6    12     6 1
    7    13     9 1
    8    16     9 1
    9    25     5 1
   10    25    16 1
   11    26    10 1
   12    26    17 1
   13    27    18 1
   14    28    14 1
   15    28    19 1
   16    29    12 1
   17    30    13 1
   18    31    24 1
   19    32     1 1
   20    32    25 1
   21    33    21 1
   22    33    26 1
   23    34    22 1
   24    34    27 1
   25    35    23 1
   26    35    28 1
   27    36    12 1
   28    36    24 1
   29    37    13 1
   30    37    15 1
   31    38    31 1
   32    39    20 1
   33    39    32 1
   34    40     2 1
   35    40    33 1
   36    41     3 1
   37    41    34 1
   38    42     4 1
   39    42    35 1
   40    43    38 1
   41    44     5 1
   42    44    17 1
   43    44    39 1
   44    45    10 1
   45    45    18 1
   46    45    40 1
   47    46    19 1
   48    46    41 1
   49    47    14 1
   50    47    16 1
   51    47    42 1
   52    48    38 1
   53    49    48 1
   54    50    49 1
   55    51    50 1
   56    52    51 1
   57    53    51 1
   58    54    53 1
   59    55    54 1
   60    56    55 1
   61    57    56 1
   62    58    56 1
   63    59    58 1
   64    60    59 1
   65    61    60 1
   66    62    61 1
   67    63    61 1
   68    64    27 1
   69    64    46 1
   70    65     5 1
   71    65    10 1
   72    65    64 1
   73    65    14 1
   74    66    23 1
   75    67    23 1
   76    68    23 1
   77    69    22 1
   78    70    22 1
   79    71    22 1
   80    72    21 1
   81    73    21 1
   82    74    21 1
   83    75    20 1
   84    76    20 1
   85    77    20 1
   86    78    15 1
   87    79    15 1
   88    80    15 1
   89    81     8 1
   90    82     8 1
   91    83     8 1
   92    84     7 1
   93    85     7 1
   94    86     6 1
   95    87     6 1
   96    88     3 1
   97    89     3 1
   98    90     1 1
   99    91     1 1
  100    92    63 1
  101    93    63 1
  102    94    63 1
  103    95    62 1
  104    96    62 1
  105    97    62 1
  106    98    60 1
  107    99    60 1
  108   100    59 1
  109   101    59 1
  110   102    58 1
  111   103    58 1
  112   104    57 1
  113   105    57 1
  114   106    57 1
  115   107    55 1
  116   108    55 1
  117   109    54 1
  118   110    54 1
  119   111    53 1
  120   112    53 1
  121   113    19 1
  122   114    18 1
  123   115    17 1
  124   116     9 1
  125   117     2 1
  126   118    52 1
  127   119    52 1
  128   120    52 1
  129   121    51 1
  130   122    50 1
  131   123    50 1
  132   124    49 1
  133   125    49 1
  134   126    48 1
  135   127    48 1
  136   128    43 1
  137   129    43 1
  138   130    43 1
  139   131    39 1
  140   132    32 1
  141   133    31 1
  142   134    61 1
  143   135    56 1
  144   136    24 1
  145   137    24 1
  146   139   138 1
  147   140   139 1
  148   141   140 1
  149   142   140 1
  150   143   142 1
  151   144   138 1
  152   144   143 1
  153   145   144 1
  154   146   145 1
  155   147   146 1
  156   148   147 1
  157   149   148 1
  158   150   149 1
  159   151   150 1
  160   152   151 1
  161   153   152 1
  162   154   138 1
  163   155   138 1
  164   156   143 1
  165   157   147 1
  166   158   151 1
  167   160   159 1
  168   161   160 1
  169   162   161 1
  170   163   161 1
  171   164   163 1
  172   165   159 1
  173   165   164 1
  174   166   165 1
  175   167   166 1
  176   168   167 1
  177   169   168 1
  178   170   169 1
  179   171   170 1
  180   172   171 1
  181   173   172 1
  182   174   153 1
  183   174   173 1
  184   175   159 1
  185   176   159 1
  186   177   164 1
  187   178   168 1
  188   179   172 1
  189   180   179 1
  190   181   179 1
  191   182   179 1
  192   183   178 1
  193   184   178 1
  194   185   178 1
  195   186   177 1
  196   187   177 1
  197   188   177 1
  198   189   176 1
  199   190   176 1
  200   191   176 1
  201   192   175 1
  202   193   175 1
  203   194   175 1
  204   195   160 1
  205   196   160 1
  206   197   158 1
  207   198   158 1
  208   199   158 1
  209   200   157 1
  210   201   157 1
  211   202   157 1
  212   203   156 1
  213   204   156 1
  214   205   156 1
  215   206   155 1
  216   207   155 1
  217   208   155 1
  218   209   154 1
  219   210   154 1
  220   211   154 1
  221   212   141 1
  222   213   146 1
  223   214   145 1
  224   215   142 1
  225   216   142 1
  226   217   174 1
  227   218   173 1
  228   219   171 1
  229   220   170 1
  230   221   169 1
  231   222   140 1
  232   223   167 1
  233   224   166 1
  234   225   165 1
  235   226   163 1
  236   227   161 1
  237   228   139 1
  238   229   139 1
  239   230   153 1
  240   231   152 1
  241   232   150 1
  242   233   149 1
  243   234   148 1
  244   235   162 1
  245   65    153 1
  246   65    174 1
@<TRIPOS>SUBSTRUCTURE
      1 CLA               1 ****               0 ****  **** 
      2 LUT             138 ****               0 ****  **** 
