@<TRIPOS>MOLECULE
Cpptraj generated mol2 file.
  235   246     2     0     0
SMALL
USER_CHARGES


@<TRIPOS>ATOM
      1 CAA        79.6373   57.2376   34.1577 a2         1 CLA     -0.055900
      2 CAB        79.6462   60.8225   43.1129 c8         1 CLA     -0.148500
      3 CAC        72.6717   57.0608   42.7319 a2         1 CLA     -0.012600
      4 CAD        75.1121   54.8080   35.2518 ck         1 CLA      0.398800
      5 NA         78.5911   57.5967   37.4917 ns         1 CLA     -0.225500
      6 CBA        80.8934   57.0268   33.2715 a2         1 CLA     -0.135000
      7 CBB        80.7068   61.0762   43.8682 c0         1 CLA     -0.395200
      8 CBC        72.7444   55.5173   42.5562 a3         1 CLA     -0.037700
      9 CBD        76.6776   55.2762   34.9464 a1         1 CLA     -0.053900
     10 NB         78.5352   59.0975   40.0629 nm         1 CLA     -0.295700
     11 OBD        74.4887   54.0340   34.5166 o2         1 CLA     -0.494600
     12 CGA        81.3342   55.6254   32.7901 c4         1 CLA      0.827000
     13 CGD        77.5107   53.9968   34.8824 c4         1 CLA      0.655300
     14 ND         75.6362   57.0422   38.0932 nm         1 CLA     -0.291600
     15 CED        78.9274   52.4306   36.0442 a3         1 CLA      0.005400
     16 CHA        77.0941   56.1959   36.1459 cs         1 CLA     -0.123800
     17 CHB        80.4617   58.7597   38.5708 aa         1 CLA     -0.291900
     18 CHC        77.1766   59.3608   42.1114 aa         1 CLA     -0.090400
     19 CHD        73.7456   57.0352   39.7127 aa         1 CLA     -0.052000
     20 CMA        81.6763   56.1919   37.1369 a3         1 CLA     -0.230700
     21 CMB        81.7556   60.8658   40.6035 a3         1 CLA     -0.180800
     22 CMC        74.9030   58.7991   44.1609 a3         1 CLA     -0.134000
     23 CMD        72.5339   55.0559   37.4632 a3         1 CLA     -0.141100
     24 C1         81.9569   53.3181   33.5103 a2         1 CLA      0.023000
     25 C1A        78.3514   56.7813   36.3734 ac         1 CLA     -0.015100
     26 C1B        79.8037   59.4039   39.6478 cr         1 CLA      0.054700
     27 C1C        75.9023   58.8348   41.7537 cn         1 CLA     -0.005600
     28 C1D        74.3161   56.6147   38.4643 ap         1 CLA     -0.047300
     29 O1A        81.4551   55.2851   31.6457 o2         1 CLA     -0.610800
     30 O1D        77.6439   53.3595   33.8368 o2         1 CLA     -0.558200
     31 C2         82.6674   52.6610   34.6611 c8         1 CLA     -0.325100
     32 C2A        79.6416   56.6336   35.5720 a1         1 CLA      0.098600
     33 C2B        80.3952   60.2676   40.6835 cb         1 CLA      0.088500
     34 C2C        74.8662   58.4757   42.6933 cb         1 CLA      0.053700
     35 C2D        73.7592   55.7564   37.4198 cb         1 CLA      0.058900
     36 O2A        81.5275   54.6857   33.8337 o1         1 CLA     -0.437200
     37 O2D        78.1107   53.6345   36.0988 o1         1 CLA     -0.357600
     38 C3         83.8580   52.1528   34.5175 c5         1 CLA      0.031200
     39 C3A        80.7051   57.2650   36.5218 a1         1 CLA      0.166800
     40 C3B        79.5283   60.2828   41.7774 cb         1 CLA      0.035000
     41 C3C        73.8593   57.7866   42.0498 cb         1 CLA     -0.089900
     42 C3D        74.7803   55.5660   36.5112 cb         1 CLA     -0.035900
     43 C4         84.1885   50.6710   34.3478 a3         1 CLA     -0.053300
     44 C4A        79.9037   57.9488   37.5835 ac         1 CLA      0.001800
     45 C4B        78.3508   59.5481   41.3039 cn         1 CLA     -0.020900
     46 C4C        74.3733   57.7116   40.7167 cr         1 CLA     -0.044400
     47 C4D        75.8972   56.4113   36.9251 c6         1 CLA     -0.046000
     48 C5         85.0181   53.0466   34.7032 a2         1 CLA     -0.070400
     49 C6         85.4037   53.2916   36.1844 a2         1 CLA      0.043900
     50 C7         86.4709   54.3608   36.4163 a2         1 CLA     -0.150000
     51 C8         86.5307   54.9784   37.8622 a1         1 CLA      0.064200
     52 C9         85.2519   55.8530   38.1004 a3         1 CLA     -0.259300
     53 C10        87.8347   55.8938   38.0136 a2         1 CLA     -0.071900
     54 C11        88.1296   56.6459   39.3715 a2         1 CLA      0.014500
     55 C12        88.0830   55.5536   40.4873 a2         1 CLA     -0.112100
     56 C13        88.4589   56.0038   41.9633 a1         1 CLA      0.089200
     57 C14        88.6173   54.7650   42.8340 a3         1 CLA     -0.239100
     58 C15        87.3524   56.9030   42.4543 a2         1 CLA     -0.102200
     59 C16        87.6279   57.7775   43.6895 a2         1 CLA      0.023900
     60 C17        86.5131   58.7473   44.1571 a2         1 CLA     -0.105700
     61 C18        85.2310   58.0828   44.7785 a1         1 CLA      0.206800
     62 C19        85.4975   57.0120   45.8536 a3         1 CLA     -0.280100
     63 C20        84.4547   59.2381   45.4317 a3         1 CLA     -0.280100
     64 NC         75.5893   58.3345   40.5877 nx         1 CLA     -0.309200
     65 MG         77.0296   58.1209   38.9621 mg         1 CLA      0.895000
     66 HMD3       72.1321   54.8446   38.4235 dc         1 CLA      0.064300
     67 HMD2       71.7365   55.5748   36.9031 dc         1 CLA      0.064300
     68 HMD1       72.5566   53.9816   37.0523 dc         1 CLA      0.064300
     69 HMC3       75.6366   58.1129   44.6864 dc         1 CLA      0.052100
     70 HMC2       75.1924   59.8300   44.2023 dc         1 CLA      0.052100
     71 HMC1       73.9079   58.7672   44.4136 dc         1 CLA      0.052100
     72 HMB3       81.8766   61.6085   41.3610 dc         1 CLA      0.063600
     73 HMB2       82.5594   60.0548   40.7826 dc         1 CLA      0.063600
     74 HMB1       81.8639   61.4008   39.7182 dc         1 CLA      0.063600
     75 HMA3       82.2335   56.5124   38.0635 dc         1 CLA      0.058300
     76 HMA2       81.0750   55.3292   37.3716 dc         1 CLA      0.058300
     77 HMA1       82.3720   55.9710   36.2830 dc         1 CLA      0.058300
     78 HED3       79.7319   52.5865   35.4321 dc         1 CLA      0.079300
     79 HED2       79.2230   52.2278   37.0405 dc         1 CLA      0.079300
     80 HED1       78.3250   51.5592   35.7526 dc         1 CLA      0.079300
     81 HBC3       73.7027   55.1867   42.7891 dc         1 CLA      0.016300
     82 HBC2       71.9341   55.2458   43.2424 dc         1 CLA      0.016300
     83 HBC1       72.4435   55.1975   41.4972 dc         1 CLA      0.016300
     84 HBB2       80.5562   61.3730   44.9506 da         1 CLA      0.183000
     85 HBB1       81.7398   60.8667   43.5176 da         1 CLA      0.183000
     86 HBA2       80.4927   57.5946   32.3724 dc         1 CLA      0.029400
     87 HBA1       81.7583   57.5585   33.6866 dc         1 CLA      0.029400
     88 HAC2       72.6979   57.2277   43.8459 dc         1 CLA      0.029300
     89 HAC1       71.8196   57.4704   42.2199 dc         1 CLA      0.029300
     90 HAA2       78.8049   56.7969   33.6127 dc         1 CLA      0.028700
     91 HAA1       79.3882   58.3310   34.2513 dc         1 CLA      0.028700
     92 H203       85.0397   59.9213   46.0572 dc         1 CLA      0.065600
     93 H202       84.0298   59.8292   44.6715 dc         1 CLA      0.065600
     94 H201       83.6196   59.0119   46.0582 dc         1 CLA      0.065600
     95 H193       86.2295   57.3556   46.5720 dc         1 CLA      0.065600
     96 H192       84.5379   56.9709   46.2831 dc         1 CLA      0.065600
     97 H191       85.7719   56.0992   45.3765 dc         1 CLA      0.065600
     98 H172       86.9474   59.3114   45.0306 dc         1 CLA      0.027600
     99 H171       86.3325   59.5458   43.3771 dc         1 CLA      0.027600
    100 H162       87.9038   57.1608   44.5419 dc         1 CLA      0.002900
    101 H161       88.5093   58.4161   43.4034 dc         1 CLA      0.002900
    102 H152       87.2857   57.5880   41.6329 dc         1 CLA      0.029100
    103 H151       86.3563   56.4001   42.6109 dc         1 CLA      0.029100
    104 H143       87.7394   54.1944   42.9387 dc         1 CLA      0.063600
    105 H142       89.3667   54.1832   42.2748 dc         1 CLA      0.063600
    106 H141       88.9188   55.1235   43.7651 dc         1 CLA      0.063600
    107 H122       87.0438   55.1672   40.5627 dc         1 CLA      0.032500
    108 H121       88.7391   54.7688   40.1159 dc         1 CLA      0.032500
    109 H112       89.1333   57.0690   39.3739 dc         1 CLA      0.006600
    110 H111       87.4654   57.5155   39.4030 dc         1 CLA      0.006600
    111 H102       88.7505   55.2671   37.7584 dc         1 CLA      0.024100
    112 H101       87.8372   56.6903   37.2393 dc         1 CLA      0.024100
    113 HHD        72.6664   56.6903   39.8234 da         1 CLA      0.174300
    114 HHC        77.2829   59.5432   43.1894 da         1 CLA      0.136800
    115 HHB        81.4860   59.0312   38.3311 da         1 CLA      0.138300
    116 HBD        76.8090   55.8862   34.1043 dc         1 CLA      0.107700
    117 HAB        78.7103   61.0130   43.5220 da         1 CLA      0.155200
    118 H93        85.1674   56.6451   37.3628 dc         1 CLA      0.069500
    119 H92        84.3066   55.2987   37.9872 dc         1 CLA      0.069500
    120 H91        85.1702   56.2786   39.0662 dc         1 CLA      0.069500
    121 H8         86.5096   54.1600   38.6262 dc         1 CLA      0.029300
    122 H72        87.5139   54.0017   36.1754 dc         1 CLA      0.044400
    123 H71        86.2437   55.1582   35.6978 dc         1 CLA      0.044400
    124 H62        84.4674   53.4203   36.6293 dc         1 CLA      0.015600
    125 H61        85.6800   52.3163   36.5358 dc         1 CLA      0.015600
    126 H52        85.9501   52.6253   34.1936 dc         1 CLA      0.033200
    127 H51        84.8209   54.0302   34.2255 dc         1 CLA      0.033200
    128 H43        83.2459   50.0997   34.5648 dc         1 CLA      0.037000
    129 H42        84.5397   50.3843   33.3429 dc         1 CLA      0.037000
    130 H41        84.9879   50.4234   35.0455 dc         1 CLA      0.037000
    131 H3A        81.2191   57.9951   35.9712 dc         1 CLA      0.041100
    132 H2A        79.8522   55.6010   35.4783 dc         1 CLA      0.083100
    133 H2         82.1926   52.7112   35.6426 da         1 CLA      0.180900
    134 H18        84.5775   57.6235   43.9845 dc         1 CLA     -0.003900
    135 H13        89.4256   56.5646   41.9778 dc         1 CLA      0.019700
    136 H12        81.0691   52.7858   33.2719 dc         1 CLA      0.120400
    137 H11        82.6066   53.3152   32.5954 dc         1 CLA      0.120400
    138 C1         70.0227   60.7515   50.0553 Z1         2 LUT      0.509236
    139 C2         68.6303   60.4608   50.7307 Z2         2 LUT     -0.434695
    140 C3         67.5553   61.6243   50.8425 Z3         2 LUT      0.437453
    141 O3         67.1276   61.7882   52.1905 S1         2 LUT     -0.547129
    142 C4         68.1180   62.8832   50.1922 Z4         2 LUT     -0.468603
    143 C5         68.7202   62.5949   48.9220 Z5         2 LUT      0.279246
    144 C6         69.6707   61.6352   48.8013 Z6         2 LUT     -0.305473
    145 C7         70.2197   61.2147   47.5186 Z7         2 LUT      0.069402
    146 C8         71.2446   61.7671   46.7553 Z8         2 LUT     -0.191631
    147 C9         71.6645   61.4426   45.3960 Z9         2 LUT      0.196698
    148 C10        72.7823   61.9908   44.9207 Y1         2 LUT     -0.208611
    149 C11        73.4121   61.8812   43.6367 Y2         2 LUT      0.030784
    150 C12        74.4775   62.7237   43.2941 Y3         2 LUT     -0.220316
    151 C13        75.3855   62.5650   42.2340 Y4         2 LUT      0.215937
    152 C14        76.6173   63.1501   42.3044 Y5         2 LUT     -0.185793
    153 C15        77.6649   63.0169   41.3353 Y6         2 LUT     -0.057835
    154 C16        70.6838   59.4379   49.6652 Y7         2 LUT     -0.405615
    155 C17        70.8116   61.4806   51.1243 Y7         2 LUT     -0.405615
    156 C18        68.3930   63.5704   47.8082 Y9         2 LUT     -0.369639
    157 C19        70.8793   60.4190   44.6130 W1         2 LUT     -0.333362
    158 C20        74.8728   61.9465   41.0781 W2         2 LUT     -0.323439
    159 C21        88.9094   64.2239   34.9076 Z1         2 LUT      0.406104
    160 C22        89.6511   63.5456   33.7391 Z2         2 LUT     -0.404965
    161 C23        89.8292   64.4520   32.4470 Z3         2 LUT      0.391255
    162 O23        90.2603   63.5067   31.4330 S1         2 LUT     -0.528210
    163 C24        88.6084   65.3372   32.1421 W6         2 LUT     -0.258361
    164 C25        87.6169   65.5435   33.0153 Z5         2 LUT      0.133546
    165 C26        87.5061   64.8630   34.4077 W8         2 LUT     -0.147008
    166 C27        86.8071   65.4624   35.5689 Z7         2 LUT      0.023843
    167 C28        85.5345   65.0921   35.9834 Z8         2 LUT     -0.216987
    168 C29        84.9136   65.5748   37.2684 Z9         2 LUT      0.206524
    169 C30        83.7381   64.9978   37.5823 Y1         2 LUT     -0.215556
    170 C31        82.9495   65.1012   38.7668 Y2         2 LUT      0.025142
    171 C32        81.8178   64.4184   39.0405 Y3         2 LUT     -0.212209
    172 C33        80.9911   64.4764   40.2705 Y4         2 LUT      0.240937
    173 C34        79.7832   63.7131   40.3193 Y5         2 LUT     -0.218862
    174 C35        78.8003   63.6978   41.3952 Y6         2 LUT     -0.023547
    175 C36        89.8593   65.3912   35.3844 Y7         2 LUT     -0.393485
    176 C37        88.8985   63.2249   36.1045 Y7         2 LUT     -0.393485
    177 C38        86.4554   66.4200   32.4968 Y9         2 LUT     -0.387526
    178 C39        85.6492   66.6998   38.0283 W1         2 LUT     -0.322618
    179 C40        81.4027   65.5348   41.2861 W2         2 LUT     -0.358472
    180 H403       82.4568   65.4076   41.6724 R7         2 LUT      0.097720
    181 H402       81.2913   66.5502   40.9356 R7         2 LUT      0.097720
    182 H401       80.7492   65.5243   42.1236 R7         2 LUT      0.097720
    183 H393       86.7084   66.4984   38.0483 R4         2 LUT      0.082505
    184 H392       85.6544   67.6049   37.4637 R4         2 LUT      0.082505
    185 H391       85.4794   66.6440   39.1512 R4         2 LUT      0.082505
    186 H383       86.1136   66.1897   31.4144 R1         2 LUT      0.104030
    187 H382       85.5552   66.4127   33.1511 R1         2 LUT      0.104030
    188 H381       86.7219   67.5363   32.3968 R1         2 LUT      0.104030
    189 H373       89.9136   62.8511   36.2288 T4         2 LUT      0.089537
    190 H372       88.6227   63.7548   37.0613 T4         2 LUT      0.089537
    191 H371       88.2395   62.3467   35.9275 T4         2 LUT      0.089537
    192 H363       89.9732   66.1948   34.6366 T4         2 LUT      0.089537
    193 H362       89.4887   65.8956   36.2420 T4         2 LUT      0.089537
    194 H361       90.8144   64.8986   35.5919 T4         2 LUT      0.089537
    195 H222       90.6651   63.2896   33.9824 U2         2 LUT      0.127376
    196 H221       89.0041   62.6943   33.4505 U2         2 LUT      0.127376
    197 H203       74.1551   61.1965   41.2824 R7         2 LUT      0.087068
    198 H202       74.4169   62.6720   40.3824 R7         2 LUT      0.087068
    199 H201       75.5679   61.3752   40.5361 R7         2 LUT      0.087068
    200 H193       70.4361   59.6075   45.2622 R4         2 LUT      0.089716
    201 H192       70.0920   60.9002   44.0676 R4         2 LUT      0.089716
    202 H191       71.5749   59.9237   43.9101 R4         2 LUT      0.089716
    203 H183       67.5515   64.2005   48.0683 R1         2 LUT      0.094572
    204 H182       69.1783   64.2852   47.6536 R1         2 LUT      0.094572
    205 H181       68.1827   63.0959   46.8431 R1         2 LUT      0.094572
    206 H173       70.3416   61.9993   51.9417 T4         2 LUT      0.093752
    207 H172       71.4176   60.8328   51.7954 T4         2 LUT      0.093752
    208 H171       71.5307   62.1160   50.7064 T4         2 LUT      0.093752
    209 H163       71.7341   59.5731   49.2050 T4         2 LUT      0.093752
    210 H162       70.7759   58.8341   50.5458 T4         2 LUT      0.093752
    211 H161       70.1304   58.9447   48.9118 T4         2 LUT      0.093752
    212 HO3        67.8337   62.0851   52.8221 Q1         2 LUT      0.300121
    213 H8         71.7433   62.6335   47.2263 U7         2 LUT      0.080784
    214 H7         69.5861   60.4966   47.0310 U6         2 LUT      0.042190
    215 H42        67.3818   63.6969   50.1164 U5         2 LUT      0.145166
    216 H41        68.9006   63.2599   50.8112 U5         2 LUT      0.145166
    217 H35        78.8756   64.4146   42.2732 T3         2 LUT      0.077919
    218 H34        79.6226   63.0855   39.3926 T2         2 LUT      0.073626
    219 H32        81.4209   63.8215   38.2097 T1         2 LUT      0.092510
    220 H31        83.3182   65.8255   39.4721 U9         2 LUT      0.070048
    221 H30        83.3073   64.2435   36.8817 U8         2 LUT      0.085442
    222 H3         66.5755   61.4615   50.3227 U3         2 LUT     -0.031596
    223 H28        85.0385   64.2782   35.4814 U7         2 LUT      0.084728
    224 H27        87.3351   66.2389   36.0942 U6         2 LUT      0.087291
    225 H26        86.9226   64.0184   34.0428 Q6         2 LUT      0.075325
    226 H24        88.5067   65.8196   31.1354 Q5         2 LUT      0.094482
    227 H23        90.6148   65.1333   32.4532 U3         2 LUT     -0.024869
    228 H22        68.1059   59.8927   49.9998 U2         2 LUT      0.127376
    229 H21        68.6190   59.6901   51.4648 U2         2 LUT      0.127376
    230 H15        77.5594   62.3339   40.5179 T3         2 LUT      0.093200
    231 H14        76.9237   63.7020   43.2664 T2         2 LUT      0.068865
    232 H12        74.8147   63.4808   44.0438 T1         2 LUT      0.095507
    233 H11        73.2366   61.0785   42.9502 U9         2 LUT      0.068930
    234 H10        73.2910   62.7582   45.5514 U8         2 LUT      0.083911
    235 H1         89.8966   63.7674   30.5499 Q1         2 LUT      0.297311
@<TRIPOS>BOND
    1     6     1 1
    2     7     2 1
    3     8     3 1
    4     9     4 1
    5    11     4 1
    6    12     6 1
    7    13     9 1
    8    16     9 1
    9    25     5 1
   10    25    16 1
   11    26    10 1
   12    26    17 1
   13    27    18 1
   14    28    14 1
   15    28    19 1
   16    29    12 1
   17    30    13 1
   18    31    24 1
   19    32     1 1
   20    32    25 1
   21    33    21 1
   22    33    26 1
   23    34    22 1
   24    34    27 1
   25    35    23 1
   26    35    28 1
   27    36    12 1
   28    36    24 1
   29    37    13 1
   30    37    15 1
   31    38    31 1
   32    39    20 1
   33    39    32 1
   34    40     2 1
   35    40    33 1
   36    41     3 1
   37    41    34 1
   38    42     4 1
   39    42    35 1
   40    43    38 1
   41    44     5 1
   42    44    17 1
   43    44    39 1
   44    45    10 1
   45    45    18 1
   46    45    40 1
   47    46    19 1
   48    46    41 1
   49    47    14 1
   50    47    16 1
   51    47    42 1
   52    48    38 1
   53    49    48 1
   54    50    49 1
   55    51    50 1
   56    52    51 1
   57    53    51 1
   58    54    53 1
   59    55    54 1
   60    56    55 1
   61    57    56 1
   62    58    56 1
   63    59    58 1
   64    60    59 1
   65    61    60 1
   66    62    61 1
   67    63    61 1
   68    64    27 1
   69    64    46 1
   70    65     5 1
   71    65    10 1
   72    65    64 1
   73    65    14 1
   74    66    23 1
   75    67    23 1
   76    68    23 1
   77    69    22 1
   78    70    22 1
   79    71    22 1
   80    72    21 1
   81    73    21 1
   82    74    21 1
   83    75    20 1
   84    76    20 1
   85    77    20 1
   86    78    15 1
   87    79    15 1
   88    80    15 1
   89    81     8 1
   90    82     8 1
   91    83     8 1
   92    84     7 1
   93    85     7 1
   94    86     6 1
   95    87     6 1
   96    88     3 1
   97    89     3 1
   98    90     1 1
   99    91     1 1
  100    92    63 1
  101    93    63 1
  102    94    63 1
  103    95    62 1
  104    96    62 1
  105    97    62 1
  106    98    60 1
  107    99    60 1
  108   100    59 1
  109   101    59 1
  110   102    58 1
  111   103    58 1
  112   104    57 1
  113   105    57 1
  114   106    57 1
  115   107    55 1
  116   108    55 1
  117   109    54 1
  118   110    54 1
  119   111    53 1
  120   112    53 1
  121   113    19 1
  122   114    18 1
  123   115    17 1
  124   116     9 1
  125   117     2 1
  126   118    52 1
  127   119    52 1
  128   120    52 1
  129   121    51 1
  130   122    50 1
  131   123    50 1
  132   124    49 1
  133   125    49 1
  134   126    48 1
  135   127    48 1
  136   128    43 1
  137   129    43 1
  138   130    43 1
  139   131    39 1
  140   132    32 1
  141   133    31 1
  142   134    61 1
  143   135    56 1
  144   136    24 1
  145   137    24 1
  146   139   138 1
  147   140   139 1
  148   141   140 1
  149   142   140 1
  150   143   142 1
  151   144   138 1
  152   144   143 1
  153   145   144 1
  154   146   145 1
  155   147   146 1
  156   148   147 1
  157   149   148 1
  158   150   149 1
  159   151   150 1
  160   152   151 1
  161   153   152 1
  162   154   138 1
  163   155   138 1
  164   156   143 1
  165   157   147 1
  166   158   151 1
  167   160   159 1
  168   161   160 1
  169   162   161 1
  170   163   161 1
  171   164   163 1
  172   165   159 1
  173   165   164 1
  174   166   165 1
  175   167   166 1
  176   168   167 1
  177   169   168 1
  178   170   169 1
  179   171   170 1
  180   172   171 1
  181   173   172 1
  182   174   153 1
  183   174   173 1
  184   175   159 1
  185   176   159 1
  186   177   164 1
  187   178   168 1
  188   179   172 1
  189   180   179 1
  190   181   179 1
  191   182   179 1
  192   183   178 1
  193   184   178 1
  194   185   178 1
  195   186   177 1
  196   187   177 1
  197   188   177 1
  198   189   176 1
  199   190   176 1
  200   191   176 1
  201   192   175 1
  202   193   175 1
  203   194   175 1
  204   195   160 1
  205   196   160 1
  206   197   158 1
  207   198   158 1
  208   199   158 1
  209   200   157 1
  210   201   157 1
  211   202   157 1
  212   203   156 1
  213   204   156 1
  214   205   156 1
  215   206   155 1
  216   207   155 1
  217   208   155 1
  218   209   154 1
  219   210   154 1
  220   211   154 1
  221   212   141 1
  222   213   146 1
  223   214   145 1
  224   215   142 1
  225   216   142 1
  226   217   174 1
  227   218   173 1
  228   219   171 1
  229   220   170 1
  230   221   169 1
  231   222   140 1
  232   223   167 1
  233   224   166 1
  234   225   165 1
  235   226   163 1
  236   227   161 1
  237   228   139 1
  238   229   139 1
  239   230   153 1
  240   231   152 1
  241   232   150 1
  242   233   149 1
  243   234   148 1
  244   235   162 1
  245   65    153 1
  246   65    174 1
@<TRIPOS>SUBSTRUCTURE
      1 CLA               1 ****               0 ****  **** 
      2 LUT             138 ****               0 ****  **** 
