@<TRIPOS>MOLECULE
Cpptraj generated mol2 file.
  235   246     2     0     0
SMALL
USER_CHARGES


@<TRIPOS>ATOM
      1 CAA        77.9437   58.8848   34.9164 a2         1 CLA     -0.055900
      2 CAB        77.8802   62.6013   43.9213 c8         1 CLA     -0.148500
      3 CAC        70.7350   59.0193   43.2511 a2         1 CLA     -0.012600
      4 CAD        73.7701   56.0685   36.3804 ck         1 CLA      0.398800
      5 NA         76.9204   59.2536   38.2668 ns         1 CLA     -0.225500
      6 CBA        79.2081   58.6411   33.9576 a2         1 CLA     -0.135000
      7 CBB        78.9741   62.5137   44.6882 c0         1 CLA     -0.395200
      8 CBC        70.7225   57.4717   43.2828 a3         1 CLA     -0.037700
      9 CBD        75.2751   56.5244   36.1171 a1         1 CLA     -0.053900
     10 NB         76.7355   60.9023   40.8340 nm         1 CLA     -0.295700
     11 OBD        73.1583   55.2336   35.7716 o2         1 CLA     -0.494600
     12 CGA        79.4724   57.2200   33.5762 c4         1 CLA      0.827000
     13 CGD        76.3115   55.4121   36.2645 c4         1 CLA      0.655300
     14 ND         74.0275   58.4532   38.9121 nm         1 CLA     -0.291600
     15 CED        77.2162   53.7443   37.6478 a3         1 CLA      0.005400
     16 CHA        75.5434   57.6379   37.0532 cs         1 CLA     -0.123800
     17 CHB        78.6882   60.6845   39.3030 aa         1 CLA     -0.291900
     18 CHC        75.4803   61.1970   42.8483 aa         1 CLA     -0.090400
     19 CHD        72.0157   58.7491   40.2738 aa         1 CLA     -0.052000
     20 CMA        80.5158   58.6963   37.4923 a3         1 CLA     -0.230700
     21 CMB        80.0090   62.6868   41.3345 a3         1 CLA     -0.180800
     22 CMC        72.9737   60.8692   44.8067 a3         1 CLA     -0.134000
     23 CMD        70.8298   56.5245   38.3798 a3         1 CLA     -0.141100
     24 C1         80.5638   55.2039   34.2553 a2         1 CLA      0.023000
     25 C1A        76.7399   58.4426   37.1945 ac         1 CLA     -0.015100
     26 C1B        78.0103   61.2092   40.4416 cr         1 CLA      0.054700
     27 C1C        74.2048   60.6425   42.4850 cn         1 CLA     -0.005600
     28 C1D        72.6724   58.1954   39.1939 ap         1 CLA     -0.047300
     29 O1A        79.4136   56.7750   32.4652 o2         1 CLA     -0.610800
     30 O1D        77.0607   55.0582   35.3837 o2         1 CLA     -0.558200
     31 C2         80.6513   54.4473   35.4822 c8         1 CLA     -0.325100
     32 C2A        78.0591   58.4214   36.3940 a1         1 CLA      0.098600
     33 C2B        78.6859   61.9821   41.4491 cb         1 CLA      0.088500
     34 C2C        73.0436   60.3951   43.3825 cb         1 CLA      0.053700
     35 C2D        72.1778   57.1340   38.2980 cb         1 CLA      0.058900
     36 O2A        80.0982   56.5114   34.6138 o1         1 CLA     -0.437200
     37 O2D        76.3006   54.8529   37.5032 o1         1 CLA     -0.357600
     38 C3         81.8085   54.4207   36.1238 c5         1 CLA      0.031200
     39 C3A        79.0968   59.3258   37.1321 a1         1 CLA      0.166800
     40 C3B        77.7939   62.0097   42.5543 cb         1 CLA      0.035000
     41 C3C        72.0599   59.6374   42.6782 cb         1 CLA     -0.089900
     42 C3D        73.2639   56.8545   37.5173 cb         1 CLA     -0.035900
     43 C4         82.7814   53.3157   36.0856 a3         1 CLA     -0.053300
     44 C4A        78.2030   59.7870   38.3649 ac         1 CLA      0.001800
     45 C4B        76.5860   61.3247   42.0868 cn         1 CLA     -0.020900
     46 C4C        72.7026   59.4217   41.3250 cr         1 CLA     -0.044400
     47 C4D        74.3768   57.7007   37.8740 c6         1 CLA     -0.046000
     48 C5         81.9713   55.3252   37.2720 a2         1 CLA     -0.070400
     49 C6         83.2901   56.1151   37.4511 a2         1 CLA      0.043900
     50 C7         83.5066   56.5047   38.9092 a2         1 CLA     -0.150000
     51 C8         84.3328   57.8272   39.1832 a1         1 CLA      0.064200
     52 C9         85.7966   57.5944   38.6082 a3         1 CLA     -0.259300
     53 C10        84.3075   58.5284   40.5771 a2         1 CLA     -0.071900
     54 C11        82.9239   59.0388   40.9424 a2         1 CLA      0.014500
     55 C12        83.0016   59.9515   42.1801 a2         1 CLA     -0.112100
     56 C13        83.7029   59.3904   43.4250 a1         1 CLA      0.089200
     57 C14        82.7496   58.2771   44.0094 a3         1 CLA     -0.239100
     58 C15        83.9684   60.4565   44.5658 a2         1 CLA     -0.102200
     59 C16        82.8378   61.3969   45.0775 a2         1 CLA      0.023900
     60 C17        83.1508   62.2388   46.3355 a2         1 CLA     -0.105700
     61 C18        82.0344   63.1373   46.9325 a1         1 CLA      0.206800
     62 C19        80.8289   62.3199   47.4144 a3         1 CLA     -0.280100
     63 C20        82.5041   63.9870   48.1350 a3         1 CLA     -0.280100
     64 NC         73.9483   60.0106   41.3114 nx         1 CLA     -0.309200
     65 MG         75.2783   59.7850   39.7130 mg         1 CLA      0.895000
     66 HMD3       70.8083   55.4646   37.9362 dc         1 CLA      0.064300
     67 HMD2       70.6376   56.3399   39.4215 dc         1 CLA      0.064300
     68 HMD1       70.0122   57.1732   38.1626 dc         1 CLA      0.064300
     69 HMC3       73.5266   61.7670   45.0798 dc         1 CLA      0.052100
     70 HMC2       71.9768   61.1247   44.9418 dc         1 CLA      0.052100
     71 HMC1       73.2671   60.1103   45.4862 dc         1 CLA      0.052100
     72 HMB3       80.0576   63.0857   40.2736 dc         1 CLA      0.063600
     73 HMB2       80.0084   63.4239   42.0675 dc         1 CLA      0.063600
     74 HMB1       80.7893   61.9745   41.3545 dc         1 CLA      0.063600
     75 HMA3       80.2519   57.9534   38.2265 dc         1 CLA      0.058300
     76 HMA2       80.9454   58.1761   36.6181 dc         1 CLA      0.058300
     77 HMA1       81.2000   59.4386   37.8286 dc         1 CLA      0.058300
     78 HED3       77.0926   53.2127   38.5837 dc         1 CLA      0.079300
     79 HED2       77.2601   53.0871   36.8594 dc         1 CLA      0.079300
     80 HED1       78.2241   54.1279   37.6833 dc         1 CLA      0.079300
     81 HBC3       70.7787   57.0394   42.2807 dc         1 CLA      0.016300
     82 HBC2       71.4442   56.9568   43.9941 dc         1 CLA      0.016300
     83 HBC1       69.7783   57.0460   43.6770 dc         1 CLA      0.016300
     84 HBB2       78.9316   62.9119   45.7198 da         1 CLA      0.183000
     85 HBB1       79.7484   61.7407   44.4010 da         1 CLA      0.183000
     86 HBA2       79.1789   59.1486   32.9967 dc         1 CLA      0.029400
     87 HBA1       80.0810   59.0500   34.4409 dc         1 CLA      0.029400
     88 HAC2       70.4866   59.3796   44.1995 dc         1 CLA      0.029300
     89 HAC1       69.8482   59.2832   42.7065 dc         1 CLA      0.029300
     90 HAA2       77.1774   58.2952   34.4546 dc         1 CLA      0.028700
     91 HAA1       77.6921   59.9501   34.9512 dc         1 CLA      0.028700
     92 H203       82.6547   63.3224   48.9072 dc         1 CLA      0.065600
     93 H202       83.3237   64.7031   47.9173 dc         1 CLA      0.065600
     94 H201       81.6843   64.6377   48.5355 dc         1 CLA      0.065600
     95 H193       81.1922   61.6337   48.1614 dc         1 CLA      0.065600
     96 H192       79.9953   62.9547   47.6905 dc         1 CLA      0.065600
     97 H191       80.5278   61.7310   46.5244 dc         1 CLA      0.065600
     98 H172       83.5358   61.5045   47.0596 dc         1 CLA      0.027600
     99 H171       83.9729   62.8530   45.9362 dc         1 CLA      0.027600
    100 H162       82.6431   62.0685   44.2324 dc         1 CLA      0.002900
    101 H161       81.9339   60.8133   45.2016 dc         1 CLA      0.002900
    102 H152       84.4001   59.9769   45.4336 dc         1 CLA      0.029100
    103 H151       84.6891   61.1628   44.1337 dc         1 CLA      0.029100
    104 H143       82.6818   57.4831   43.3040 dc         1 CLA      0.063600
    105 H142       83.2387   57.9415   44.8778 dc         1 CLA      0.063600
    106 H141       81.8039   58.6816   44.2306 dc         1 CLA      0.063600
    107 H122       83.5313   60.8185   41.8269 dc         1 CLA      0.032500
    108 H121       82.0061   60.1966   42.4764 dc         1 CLA      0.032500
    109 H112       82.5541   59.5793   40.1420 dc         1 CLA      0.006600
    110 H111       82.2251   58.1881   40.9753 dc         1 CLA      0.006600
    111 H102       84.6644   57.7145   41.2607 dc         1 CLA      0.024100
    112 H101       85.0923   59.3107   40.6669 dc         1 CLA      0.024100
    113 HHD        71.0326   58.4307   40.5369 da         1 CLA      0.174300
    114 HHC        75.4506   61.6242   43.8462 da         1 CLA      0.136800
    115 HHB        79.7491   60.9751   39.0796 da         1 CLA      0.138300
    116 HBD        75.3081   56.9356   35.1630 dc         1 CLA      0.107700
    117 HAB        77.0235   63.1094   44.2920 da         1 CLA      0.155200
    118 H93        85.7388   56.8137   37.8914 dc         1 CLA      0.069500
    119 H92        86.0983   58.5254   38.1527 dc         1 CLA      0.069500
    120 H91        86.5046   57.4080   39.4205 dc         1 CLA      0.069500
    121 H8         83.8749   58.5192   38.4722 dc         1 CLA      0.029300
    122 H72        82.5621   56.6204   39.4364 dc         1 CLA      0.044400
    123 H71        83.9364   55.6913   39.5148 dc         1 CLA      0.044400
    124 H62        84.2020   55.5568   37.1409 dc         1 CLA      0.015600
    125 H61        83.3011   56.9402   36.7328 dc         1 CLA      0.015600
    126 H52        81.1107   55.8896   37.3267 dc         1 CLA      0.033200
    127 H51        81.7327   54.7260   38.1483 dc         1 CLA      0.033200
    128 H43        82.6132   52.6880   35.2125 dc         1 CLA      0.037000
    129 H42        83.7305   53.7226   35.9624 dc         1 CLA      0.037000
    130 H41        82.7434   52.7410   37.0332 dc         1 CLA      0.037000
    131 H3A        79.3136   60.2995   36.6836 dc         1 CLA      0.041100
    132 H2A        78.3983   57.4216   36.4628 dc         1 CLA      0.083100
    133 H2         79.8052   53.8575   35.7892 da         1 CLA      0.180900
    134 H18        81.7183   63.8197   46.1384 dc         1 CLA     -0.003900
    135 H13        84.6719   59.0156   43.1744 dc         1 CLA      0.019700
    136 H12        79.9836   54.5892   33.5658 dc         1 CLA      0.120400
    137 H11        81.5412   55.3068   33.8298 dc         1 CLA      0.120400
    138 C1         66.6250   62.5262   50.8558 Z1         2 LUT      0.509236
    139 C2         66.6136   63.8667   51.6813 Z2         2 LUT     -0.434695
    140 C3         65.3100   64.6978   51.5526 Z3         2 LUT      0.437453
    141 O3         65.6533   65.9942   52.0965 S1         2 LUT     -0.547129
    142 C4         64.8438   64.6950   50.1262 Z4         2 LUT     -0.468603
    143 C5         65.6364   64.0078   49.0768 Z5         2 LUT      0.279246
    144 C6         66.4294   62.9346   49.3982 Z6         2 LUT     -0.305473
    145 C7         67.3384   62.3229   48.4226 Z7         2 LUT      0.069402
    146 C8         67.9862   62.9374   47.4505 Z8         2 LUT     -0.191631
    147 C9         68.6830   62.3984   46.2385 Z9         2 LUT      0.196698
    148 C10        69.6313   63.2287   45.7118 Y1         2 LUT     -0.208611
    149 C11        70.3256   63.1310   44.4731 Y2         2 LUT      0.030784
    150 C12        71.4032   63.8348   44.1399 Y3         2 LUT     -0.220316
    151 C13        72.3057   63.7448   42.9662 Y4         2 LUT      0.215937
    152 C14        73.4972   64.4049   43.1504 Y5         2 LUT     -0.185793
    153 C15        74.6092   64.3893   42.2493 Y6         2 LUT     -0.057835
    154 C16        65.4353   61.7059   51.4083 Y7         2 LUT     -0.405615
    155 C17        67.9183   61.8450   51.2225 Y7         2 LUT     -0.405615
    156 C18        65.5063   64.6284   47.7164 Y9         2 LUT     -0.369639
    157 C19        68.1172   61.1734   45.5960 W1         2 LUT     -0.333362
    158 C20        71.8355   63.2139   41.6987 W2         2 LUT     -0.323439
    159 C21        86.2475   66.4772   36.2035 Z1         2 LUT      0.406104
    160 C22        87.0786   66.0991   34.9390 Z2         2 LUT     -0.404965
    161 C23        87.1236   67.1485   33.7921 Z3         2 LUT      0.391255
    162 O23        88.1105   66.7072   32.8502 S1         2 LUT     -0.528210
    163 C24        85.6870   67.5056   33.4848 W6         2 LUT     -0.258361
    164 C25        84.5952   67.3295   34.2701 Z5         2 LUT      0.133546
    165 C26        84.7975   66.7288   35.6858 W8         2 LUT     -0.147008
    166 C27        83.8479   67.3362   36.7591 Z7         2 LUT      0.023843
    167 C28        82.6796   66.7687   37.2009 Z8         2 LUT     -0.216987
    168 C29        81.9130   67.1390   38.3634 Z9         2 LUT      0.206524
    169 C30        80.8321   66.3535   38.6408 Y1         2 LUT     -0.215556
    170 C31        79.9026   66.4247   39.7487 Y2         2 LUT      0.025142
    171 C32        78.8729   65.5898   40.0501 Y3         2 LUT     -0.212209
    172 C33        77.9784   65.8114   41.1420 Y4         2 LUT      0.240937
    173 C34        76.8489   65.0018   41.3729 Y5         2 LUT     -0.218862
    174 C35        75.8088   65.0944   42.3553 Y6         2 LUT     -0.023547
    175 C36        86.9842   67.5788   36.8768 Y7         2 LUT     -0.393485
    176 C37        86.3836   65.2412   37.1152 Y7         2 LUT     -0.393485
    177 C38        83.3212   68.0755   33.9359 Y9         2 LUT     -0.387526
    178 C39        82.3910   68.3315   39.1931 W1         2 LUT     -0.322618
    179 C40        78.5607   66.4639   42.3820 W2         2 LUT     -0.358472
    180 H403       79.5632   65.9598   42.5987 R7         2 LUT      0.097720
    181 H402       78.7135   67.5039   42.1804 R7         2 LUT      0.097720
    182 H401       77.9719   66.2631   43.2728 R7         2 LUT      0.097720
    183 H393       83.3762   68.1460   39.5597 R4         2 LUT      0.082505
    184 H392       82.4499   69.2378   38.5673 R4         2 LUT      0.082505
    185 H391       81.8201   68.4834   40.1084 R4         2 LUT      0.082505
    186 H383       82.4448   67.4864   34.2733 R1         2 LUT      0.104030
    187 H382       83.2014   69.0645   34.4163 R1         2 LUT      0.104030
    188 H381       83.2122   68.1872   32.8602 R1         2 LUT      0.104030
    189 H373       87.4215   65.0620   37.4980 T4         2 LUT      0.089537
    190 H372       85.8318   65.4378   38.0322 T4         2 LUT      0.089537
    191 H371       85.9761   64.4721   36.5307 T4         2 LUT      0.089537
    192 H363       86.8126   68.5407   36.4233 T4         2 LUT      0.089537
    193 H362       86.5679   67.6979   37.8322 T4         2 LUT      0.089537
    194 H361       88.0633   67.3551   36.9123 T4         2 LUT      0.089537
    195 H222       88.1144   65.9200   35.1262 U2         2 LUT      0.127376
    196 H221       86.6489   65.1934   34.4627 U2         2 LUT      0.127376
    197 H203       72.6864   63.0820   40.9956 R7         2 LUT      0.087068
    198 H202       71.4210   62.2553   41.9567 R7         2 LUT      0.087068
    199 H201       71.1565   63.8267   41.2354 R7         2 LUT      0.087068
    200 H193       67.9987   61.2908   44.4785 R4         2 LUT      0.089716
    201 H192       68.7038   60.3022   45.9180 R4         2 LUT      0.089716
    202 H191       67.1237   60.9031   46.0256 R4         2 LUT      0.089716
    203 H183       64.4541   64.9215   47.5916 R1         2 LUT      0.094572
    204 H182       66.0635   65.5325   47.6837 R1         2 LUT      0.094572
    205 H181       65.8322   64.1240   46.8473 R1         2 LUT      0.094572
    206 H173       67.9369   61.6399   52.2773 T4         2 LUT      0.093752
    207 H172       68.0162   60.8229   50.6954 T4         2 LUT      0.093752
    208 H171       68.8414   62.4669   50.9226 T4         2 LUT      0.093752
    209 H163       65.6342   60.6575   51.1742 T4         2 LUT      0.093752
    210 H162       65.3973   61.6402   52.5295 T4         2 LUT      0.093752
    211 H161       64.4698   61.9851   50.9993 T4         2 LUT      0.093752
    212 HO3        64.8244   66.3539   52.4468 Q1         2 LUT      0.300121
    213 H8         67.9874   64.0454   47.4712 U7         2 LUT      0.080784
    214 H7         67.1719   61.2662   48.4927 U6         2 LUT      0.042190
    215 H42        63.7286   64.3994   50.0862 U5         2 LUT      0.145166
    216 H41        64.7553   65.7777   49.7775 U5         2 LUT      0.145166
    217 H35        75.9549   65.7195   43.2829 T3         2 LUT      0.077919
    218 H34        76.6555   64.1762   40.7349 T2         2 LUT      0.073626
    219 H32        78.6795   64.7186   39.3574 T1         2 LUT      0.092510
    220 H31        80.1037   67.2859   40.3514 U9         2 LUT      0.070048
    221 H30        80.6808   65.5678   37.9463 U8         2 LUT      0.085442
    222 H3         64.4701   64.2682   52.1637 U3         2 LUT     -0.031596
    223 H28        82.2596   65.9700   36.5774 U7         2 LUT      0.084728
    224 H27        84.2594   68.0506   37.4683 U6         2 LUT      0.087291
    225 H26        84.5620   65.6138   35.5571 Q6         2 LUT      0.075325
    226 H24        85.5137   68.0157   32.5573 Q5         2 LUT      0.094482
    227 H23        87.6012   68.0836   34.2223 U3         2 LUT     -0.024869
    228 H22        66.8100   63.6832   52.7188 U2         2 LUT      0.127376
    229 H21        67.3979   64.4253   51.1442 U2         2 LUT      0.127376
    230 H15        74.4570   63.7840   41.3741 T3         2 LUT      0.093200
    231 H14        73.7953   64.8795   44.1510 T2         2 LUT      0.068865
    232 H12        71.6604   64.4557   44.9598 T1         2 LUT      0.095507
    233 H11        70.0147   62.3916   43.7502 U9         2 LUT      0.068930
    234 H10        69.7840   64.1309   46.3257 U8         2 LUT      0.083911
    235 H1         87.7203   66.1689   32.1157 Q1         2 LUT      0.297311
@<TRIPOS>BOND
    1     6     1 1
    2     7     2 1
    3     8     3 1
    4     9     4 1
    5    11     4 1
    6    12     6 1
    7    13     9 1
    8    16     9 1
    9    25     5 1
   10    25    16 1
   11    26    10 1
   12    26    17 1
   13    27    18 1
   14    28    14 1
   15    28    19 1
   16    29    12 1
   17    30    13 1
   18    31    24 1
   19    32     1 1
   20    32    25 1
   21    33    21 1
   22    33    26 1
   23    34    22 1
   24    34    27 1
   25    35    23 1
   26    35    28 1
   27    36    12 1
   28    36    24 1
   29    37    13 1
   30    37    15 1
   31    38    31 1
   32    39    20 1
   33    39    32 1
   34    40     2 1
   35    40    33 1
   36    41     3 1
   37    41    34 1
   38    42     4 1
   39    42    35 1
   40    43    38 1
   41    44     5 1
   42    44    17 1
   43    44    39 1
   44    45    10 1
   45    45    18 1
   46    45    40 1
   47    46    19 1
   48    46    41 1
   49    47    14 1
   50    47    16 1
   51    47    42 1
   52    48    38 1
   53    49    48 1
   54    50    49 1
   55    51    50 1
   56    52    51 1
   57    53    51 1
   58    54    53 1
   59    55    54 1
   60    56    55 1
   61    57    56 1
   62    58    56 1
   63    59    58 1
   64    60    59 1
   65    61    60 1
   66    62    61 1
   67    63    61 1
   68    64    27 1
   69    64    46 1
   70    65     5 1
   71    65    10 1
   72    65    64 1
   73    65    14 1
   74    66    23 1
   75    67    23 1
   76    68    23 1
   77    69    22 1
   78    70    22 1
   79    71    22 1
   80    72    21 1
   81    73    21 1
   82    74    21 1
   83    75    20 1
   84    76    20 1
   85    77    20 1
   86    78    15 1
   87    79    15 1
   88    80    15 1
   89    81     8 1
   90    82     8 1
   91    83     8 1
   92    84     7 1
   93    85     7 1
   94    86     6 1
   95    87     6 1
   96    88     3 1
   97    89     3 1
   98    90     1 1
   99    91     1 1
  100    92    63 1
  101    93    63 1
  102    94    63 1
  103    95    62 1
  104    96    62 1
  105    97    62 1
  106    98    60 1
  107    99    60 1
  108   100    59 1
  109   101    59 1
  110   102    58 1
  111   103    58 1
  112   104    57 1
  113   105    57 1
  114   106    57 1
  115   107    55 1
  116   108    55 1
  117   109    54 1
  118   110    54 1
  119   111    53 1
  120   112    53 1
  121   113    19 1
  122   114    18 1
  123   115    17 1
  124   116     9 1
  125   117     2 1
  126   118    52 1
  127   119    52 1
  128   120    52 1
  129   121    51 1
  130   122    50 1
  131   123    50 1
  132   124    49 1
  133   125    49 1
  134   126    48 1
  135   127    48 1
  136   128    43 1
  137   129    43 1
  138   130    43 1
  139   131    39 1
  140   132    32 1
  141   133    31 1
  142   134    61 1
  143   135    56 1
  144   136    24 1
  145   137    24 1
  146   139   138 1
  147   140   139 1
  148   141   140 1
  149   142   140 1
  150   143   142 1
  151   144   138 1
  152   144   143 1
  153   145   144 1
  154   146   145 1
  155   147   146 1
  156   148   147 1
  157   149   148 1
  158   150   149 1
  159   151   150 1
  160   152   151 1
  161   153   152 1
  162   154   138 1
  163   155   138 1
  164   156   143 1
  165   157   147 1
  166   158   151 1
  167   160   159 1
  168   161   160 1
  169   162   161 1
  170   163   161 1
  171   164   163 1
  172   165   159 1
  173   165   164 1
  174   166   165 1
  175   167   166 1
  176   168   167 1
  177   169   168 1
  178   170   169 1
  179   171   170 1
  180   172   171 1
  181   173   172 1
  182   174   153 1
  183   174   173 1
  184   175   159 1
  185   176   159 1
  186   177   164 1
  187   178   168 1
  188   179   172 1
  189   180   179 1
  190   181   179 1
  191   182   179 1
  192   183   178 1
  193   184   178 1
  194   185   178 1
  195   186   177 1
  196   187   177 1
  197   188   177 1
  198   189   176 1
  199   190   176 1
  200   191   176 1
  201   192   175 1
  202   193   175 1
  203   194   175 1
  204   195   160 1
  205   196   160 1
  206   197   158 1
  207   198   158 1
  208   199   158 1
  209   200   157 1
  210   201   157 1
  211   202   157 1
  212   203   156 1
  213   204   156 1
  214   205   156 1
  215   206   155 1
  216   207   155 1
  217   208   155 1
  218   209   154 1
  219   210   154 1
  220   211   154 1
  221   212   141 1
  222   213   146 1
  223   214   145 1
  224   215   142 1
  225   216   142 1
  226   217   174 1
  227   218   173 1
  228   219   171 1
  229   220   170 1
  230   221   169 1
  231   222   140 1
  232   223   167 1
  233   224   166 1
  234   225   165 1
  235   226   163 1
  236   227   161 1
  237   228   139 1
  238   229   139 1
  239   230   153 1
  240   231   152 1
  241   232   150 1
  242   233   149 1
  243   234   148 1
  244   235   162 1
  245   65    153 1
  246   65    174 1
@<TRIPOS>SUBSTRUCTURE
      1 CLA               1 ****               0 ****  **** 
      2 LUT             138 ****               0 ****  **** 
