@<TRIPOS>MOLECULE
Cpptraj generated mol2 file.
  235   246     2     0     0
SMALL
USER_CHARGES


@<TRIPOS>ATOM
      1 CAA        78.4749   58.0512   35.8068 a2         1 CLA     -0.055900
      2 CAB        77.5969   61.8536   44.5408 c8         1 CLA     -0.148500
      3 CAC        71.1701   57.2360   43.7630 a2         1 CLA     -0.012600
      4 CAD        74.3619   55.4134   36.5357 ck         1 CLA      0.398800
      5 NA         77.2917   58.3926   39.1406 ns         1 CLA     -0.225500
      6 CBA        79.7279   57.8401   34.9745 a2         1 CLA     -0.135000
      7 CBB        78.6935   61.7316   45.3530 c0         1 CLA     -0.395200
      8 CBC        71.2781   55.7521   43.9555 a3         1 CLA     -0.037700
      9 CBD        75.8685   55.8616   36.4066 a1         1 CLA     -0.053900
     10 NB         76.7887   60.0611   41.4922 nm         1 CLA     -0.295700
     11 OBD        73.6642   54.7752   35.7370 o2         1 CLA     -0.494600
     12 CGA        80.2543   56.3911   34.7572 c4         1 CLA      0.827000
     13 CGD        76.8545   54.7274   36.3916 c4         1 CLA      0.655300
     14 ND         74.4561   57.3541   39.4808 nm         1 CLA     -0.291600
     15 CED        77.3116   52.5226   37.4662 a3         1 CLA      0.005400
     16 CHA        76.1082   56.8033   37.6046 cs         1 CLA     -0.123800
     17 CHB        78.9147   59.8819   40.1741 aa         1 CLA     -0.291900
     18 CHC        75.2700   60.0928   43.5156 aa         1 CLA     -0.090400
     19 CHD        72.5796   57.0270   40.9662 aa         1 CLA     -0.052000
     20 CMA        80.8437   57.9137   38.6449 a3         1 CLA     -0.230700
     21 CMB        79.9195   62.1744   42.2404 a3         1 CLA     -0.180800
     22 CMC        72.8402   59.5620   45.4777 a3         1 CLA     -0.134000
     23 CMD        71.5728   55.1251   38.5222 a3         1 CLA     -0.141100
     24 C1         81.5298   54.7001   35.8463 a2         1 CLA      0.023000
     25 C1A        77.2542   57.5698   37.9925 ac         1 CLA     -0.015100
     26 C1B        78.0777   60.4711   41.1685 cr         1 CLA      0.054700
     27 C1C        74.1917   59.3123   43.2316 cn         1 CLA     -0.005600
     28 C1D        73.2110   56.8205   39.7128 ap         1 CLA     -0.047300
     29 O1A        80.0620   55.7211   33.7961 o2         1 CLA     -0.610800
     30 O1D        77.8817   54.5831   35.6914 o2         1 CLA     -0.558200
     31 C2         82.0475   54.5107   37.2870 c8         1 CLA     -0.325100
     32 C2A        78.5769   57.6699   37.2487 a1         1 CLA      0.098600
     33 C2B        78.5556   61.4030   42.1670 cb         1 CLA      0.088500
     34 C2C        73.1129   58.9631   44.0823 cb         1 CLA      0.053700
     35 C2D        72.8526   55.9628   38.6748 cb         1 CLA      0.058900
     36 O2A        81.0773   56.0943   35.8093 o1         1 CLA     -0.437200
     37 O2D        76.4706   53.7724   37.3374 o1         1 CLA     -0.357600
     38 C3         82.6711   53.4036   37.7919 c5         1 CLA      0.031200
     39 C3A        79.5103   58.6265   38.0862 a1         1 CLA      0.166800
     40 C3B        77.5390   61.3578   43.1652 cb         1 CLA      0.035000
     41 C3C        72.3585   58.0120   43.3461 cb         1 CLA     -0.089900
     42 C3D        73.9461   55.9162   37.8044 cb         1 CLA     -0.035900
     43 C4         81.9444   52.2048   38.2937 a3         1 CLA     -0.053300
     44 C4A        78.5615   58.9210   39.2378 ac         1 CLA      0.001800
     45 C4B        76.4433   60.5137   42.7072 cn         1 CLA     -0.020900
     46 C4C        73.0128   57.8563   42.0083 cr         1 CLA     -0.044400
     47 C4D        74.9314   56.7453   38.3153 c6         1 CLA     -0.046000
     48 C5         84.2738   53.3439   37.7470 a2         1 CLA     -0.070400
     49 C6         85.0757   54.5686   38.3220 a2         1 CLA      0.043900
     50 C7         85.6038   54.2892   39.6941 a2         1 CLA     -0.150000
     51 C8         86.3601   55.5562   40.2647 a1         1 CLA      0.064200
     52 C9         87.8994   55.4693   39.9865 a3         1 CLA     -0.259300
     53 C10        86.0880   55.8705   41.7025 a2         1 CLA     -0.071900
     54 C11        84.6706   56.4250   41.8822 a2         1 CLA      0.014500
     55 C12        84.6207   57.3783   43.0988 a2         1 CLA     -0.112100
     56 C13        85.0043   56.7499   44.5012 a1         1 CLA      0.089200
     57 C14        84.0434   55.5927   44.8479 a3         1 CLA     -0.239100
     58 C15        85.1733   57.8576   45.5203 a2         1 CLA     -0.102200
     59 C16        83.9419   58.7554   45.9342 a2         1 CLA      0.023900
     60 C17        84.2056   59.4289   47.2112 a2         1 CLA     -0.105700
     61 C18        83.2815   60.6795   47.4302 a1         1 CLA      0.206800
     62 C19        81.8397   60.3087   47.8432 a3         1 CLA     -0.280100
     63 C20        83.9395   61.5499   48.5369 a3         1 CLA     -0.280100
     64 NC         74.1050   58.6529   42.0049 nx         1 CLA     -0.309200
     65 MG         75.5857   58.7545   40.3782 mg         1 CLA      0.895000
     66 HMD3       71.3397   54.6232   39.3785 dc         1 CLA      0.064300
     67 HMD2       70.7314   55.7589   38.2858 dc         1 CLA      0.064300
     68 HMD1       71.6981   54.4287   37.6549 dc         1 CLA      0.064300
     69 HMC3       71.8820   59.4302   45.8661 dc         1 CLA      0.052100
     70 HMC2       73.4978   59.2094   46.1847 dc         1 CLA      0.052100
     71 HMC1       73.1162   60.6270   45.4156 dc         1 CLA      0.052100
     72 HMB3       80.4160   62.5843   41.3661 dc         1 CLA      0.063600
     73 HMB2       79.6099   63.0568   42.8698 dc         1 CLA      0.063600
     74 HMB1       80.6168   61.5158   42.7610 dc         1 CLA      0.063600
     75 HMA3       80.5793   56.9361   39.1901 dc         1 CLA      0.058300
     76 HMA2       81.6698   57.8129   37.9090 dc         1 CLA      0.058300
     77 HMA1       81.3365   58.5805   39.3615 dc         1 CLA      0.058300
     78 HED3       78.3755   52.6488   37.5693 dc         1 CLA      0.079300
     79 HED2       76.9474   51.8483   38.2533 dc         1 CLA      0.079300
     80 HED1       77.1560   52.0082   36.5529 dc         1 CLA      0.079300
     81 HBC3       72.2726   55.4559   44.2671 dc         1 CLA      0.016300
     82 HBC2       70.5586   55.4895   44.6980 dc         1 CLA      0.016300
     83 HBC1       71.0189   55.1993   43.1330 dc         1 CLA      0.016300
     84 HBB2       78.7566   62.1886   46.3619 da         1 CLA      0.183000
     85 HBB1       79.6210   61.3102   44.9373 da         1 CLA      0.183000
     86 HBA2       79.5588   58.3122   33.9769 dc         1 CLA      0.029400
     87 HBA1       80.6368   58.4915   35.2961 dc         1 CLA      0.029400
     88 HAC2       70.7714   57.6100   44.7161 dc         1 CLA      0.029300
     89 HAC1       70.3038   57.3464   43.1381 dc         1 CLA      0.029300
     90 HAA2       77.7234   57.4525   35.3531 dc         1 CLA      0.028700
     91 HAA1       78.2043   59.0980   35.5919 dc         1 CLA      0.028700
     92 H203       83.9017   61.0094   49.4968 dc         1 CLA      0.065600
     93 H202       84.9631   61.7980   48.3321 dc         1 CLA      0.065600
     94 H201       83.3792   62.5181   48.7255 dc         1 CLA      0.065600
     95 H193       81.7698   59.8960   48.8476 dc         1 CLA      0.065600
     96 H192       81.2430   61.2104   47.7192 dc         1 CLA      0.065600
     97 H191       81.5420   59.6623   47.0170 dc         1 CLA      0.065600
     98 H172       84.1366   58.7804   48.0729 dc         1 CLA      0.027600
     99 H171       85.2634   59.7675   47.1783 dc         1 CLA      0.027600
    100 H162       83.7904   59.4185   45.0458 dc         1 CLA      0.002900
    101 H161       83.1756   57.9989   46.1463 dc         1 CLA      0.002900
    102 H152       85.6204   57.4659   46.4024 dc         1 CLA      0.029100
    103 H151       85.9321   58.5237   45.2407 dc         1 CLA      0.029100
    104 H143       83.0005   55.8951   44.9981 dc         1 CLA      0.063600
    105 H142       84.0770   54.8048   44.0712 dc         1 CLA      0.063600
    106 H141       84.3299   55.1382   45.8547 dc         1 CLA      0.063600
    107 H122       85.2750   58.2301   42.8952 dc         1 CLA      0.032500
    108 H121       83.6590   57.8131   43.2895 dc         1 CLA      0.032500
    109 H112       84.3951   56.9418   40.9514 dc         1 CLA      0.006600
    110 H111       84.0166   55.5614   41.9924 dc         1 CLA      0.006600
    111 H102       86.3298   55.0935   42.3987 dc         1 CLA      0.024100
    112 H101       86.7778   56.7143   41.8917 dc         1 CLA      0.024100
    113 HHD        71.7402   56.4032   41.0872 da         1 CLA      0.174300
    114 HHC        75.1456   60.3797   44.5315 da         1 CLA      0.136800
    115 HHB        79.9561   60.3184   40.2357 da         1 CLA      0.138300
    116 HBD        75.8615   56.4226   35.4799 dc         1 CLA      0.107700
    117 HAB        76.7462   62.3004   45.0328 da         1 CLA      0.155200
    118 H93        88.4258   56.3692   40.4046 dc         1 CLA      0.069500
    119 H92        88.3486   54.5635   40.5470 dc         1 CLA      0.069500
    120 H91        88.1624   55.5637   38.9100 dc         1 CLA      0.069500
    121 H8         86.1684   56.3151   39.5690 dc         1 CLA      0.029300
    122 H72        84.7221   54.1062   40.3680 dc         1 CLA      0.044400
    123 H71        86.1469   53.3207   39.6881 dc         1 CLA      0.044400
    124 H62        85.9170   54.8130   37.5976 dc         1 CLA      0.015600
    125 H61        84.3655   55.3642   38.4938 dc         1 CLA      0.015600
    126 H52        84.6387   52.3974   38.1145 dc         1 CLA      0.033200
    127 H51        84.6217   53.4701   36.6603 dc         1 CLA      0.033200
    128 H43        80.8554   52.3282   38.5144 dc         1 CLA      0.037000
    129 H42        81.9663   51.4464   37.5515 dc         1 CLA      0.037000
    130 H41        82.4237   51.8414   39.2012 dc         1 CLA      0.037000
    131 H3A        79.9041   59.5245   37.5813 dc         1 CLA      0.041100
    132 H2A        78.9863   56.6440   37.4352 dc         1 CLA      0.083100
    133 H2         81.9318   55.3030   38.0080 da         1 CLA      0.180900
    134 H18        83.3634   61.3165   46.5210 dc         1 CLA     -0.003900
    135 H13        86.0225   56.3325   44.3519 dc         1 CLA      0.019700
    136 H12        80.8150   53.9109   35.6436 dc         1 CLA      0.120400
    137 H11        82.3257   54.6492   35.1077 dc         1 CLA      0.120400
    138 C1         67.7642   61.2798   50.3066 Z1         2 LUT      0.509236
    139 C2         66.3812   60.9205   50.8332 Z2         2 LUT     -0.434695
    140 C3         65.4342   62.0906   51.0264 Z3         2 LUT      0.437453
    141 O3         64.8193   62.2251   52.2742 S1         2 LUT     -0.547129
    142 C4         65.7605   63.4640   50.4802 Z4         2 LUT     -0.468603
    143 C5         66.5401   63.2372   49.2183 Z5         2 LUT      0.279246
    144 C6         67.4652   62.2375   49.0895 Z6         2 LUT     -0.305473
    145 C7         67.7457   61.7061   47.7087 Z7         2 LUT      0.069402
    146 C8         68.8841   61.9271   47.0064 Z8         2 LUT     -0.191631
    147 C9         69.4429   61.4066   45.7717 Z9         2 LUT      0.196698
    148 C10        70.4197   62.1478   45.1955 Y1         2 LUT     -0.208611
    149 C11        71.1720   62.0359   43.9545 Y2         2 LUT      0.030784
    150 C12        72.1244   62.8952   43.5793 Y3         2 LUT     -0.220316
    151 C13        73.0410   62.8147   42.5086 Y4         2 LUT      0.215937
    152 C14        74.1283   63.6776   42.6281 Y5         2 LUT     -0.185793
    153 C15        75.3081   63.8004   41.8560 Y6         2 LUT     -0.057835
    154 C16        68.4550   59.9126   50.0112 Y7         2 LUT     -0.405615
    155 C17        68.5397   62.1014   51.4483 Y7         2 LUT     -0.405615
    156 C18        65.9180   63.9478   48.0338 Y9         2 LUT     -0.369639
    157 C19        68.8852   60.1469   45.1314 W1         2 LUT     -0.333362
    158 C20        72.9318   61.9495   41.2576 W2         2 LUT     -0.323439
    159 C21        87.2606   65.3690   36.3116 Z1         2 LUT      0.406104
    160 C22        87.9739   64.9526   35.0034 Z2         2 LUT     -0.404965
    161 C23        87.9474   65.9192   33.9599 Z3         2 LUT      0.391255
    162 O23        88.7089   65.4601   32.7905 S1         2 LUT     -0.528210
    163 C24        86.5598   66.4978   33.7202 W6         2 LUT     -0.258361
    164 C25        85.5776   66.4699   34.6651 Z5         2 LUT      0.133546
    165 C26        85.8031   65.6526   35.9978 W8         2 LUT     -0.147008
    166 C27        84.9899   66.1323   37.2348 Z7         2 LUT      0.023843
    167 C28        83.7152   65.6802   37.5001 Z8         2 LUT     -0.216987
    168 C29        82.7654   66.3042   38.4502 Z9         2 LUT      0.206524
    169 C30        81.7968   65.5139   39.0516 Y1         2 LUT     -0.215556
    170 C31        80.8108   65.8874   40.0783 Y2         2 LUT      0.025142
    171 C32        79.7429   65.1610   40.5068 Y3         2 LUT     -0.212209
    172 C33        78.6915   65.4674   41.4149 Y4         2 LUT      0.240937
    173 C34        77.5417   64.7450   41.2505 Y5         2 LUT     -0.218862
    174 C35        76.3435   64.6807   42.0486 Y6         2 LUT     -0.023547
    175 C36        87.9771   66.5868   36.8606 Y7         2 LUT     -0.393485
    176 C37        87.4593   64.1678   37.2791 Y7         2 LUT     -0.393485
    177 C38        84.3319   67.2678   34.4095 Y9         2 LUT     -0.387526
    178 C39        83.0163   67.7163   39.0634 W1         2 LUT     -0.322618
    179 C40        78.8807   66.6818   42.2785 W2         2 LUT     -0.358472
    180 H403       78.9323   67.5344   41.6808 R7         2 LUT      0.097720
    181 H402       78.1443   66.8321   43.0635 R7         2 LUT      0.097720
    182 H401       79.8585   66.6215   42.7681 R7         2 LUT      0.097720
    183 H393       83.3476   68.4184   38.2876 R4         2 LUT      0.082505
    184 H392       82.1400   68.2271   39.5229 R4         2 LUT      0.082505
    185 H391       83.6931   67.6226   39.8513 R4         2 LUT      0.082505
    186 H383       83.9204   67.1138   33.4318 R1         2 LUT      0.104030
    187 H382       83.5583   66.9082   35.0715 R1         2 LUT      0.104030
    188 H381       84.4665   68.3837   34.4797 R1         2 LUT      0.104030
    189 H373       87.1282   64.4020   38.2386 T4         2 LUT      0.089537
    190 H372       86.6845   63.4540   36.9339 T4         2 LUT      0.089537
    191 H371       88.5542   63.8980   37.3079 T4         2 LUT      0.089537
    192 H363       88.9702   66.2298   37.1574 T4         2 LUT      0.089537
    193 H362       88.2254   67.4363   36.2150 T4         2 LUT      0.089537
    194 H361       87.4243   66.9023   37.7696 T4         2 LUT      0.089537
    195 H222       89.0527   64.7973   35.1997 U2         2 LUT      0.127376
    196 H221       87.5707   63.9405   34.6480 U2         2 LUT      0.127376
    197 H203       71.9889   61.4524   41.3098 R7         2 LUT      0.087068
    198 H202       72.9830   62.5522   40.3173 R7         2 LUT      0.087068
    199 H201       73.6161   61.1331   41.2258 R7         2 LUT      0.087068
    200 H193       69.4464   59.7080   44.3241 R4         2 LUT      0.089716
    201 H192       68.9009   59.3916   45.9563 R4         2 LUT      0.089716
    202 H191       67.8315   60.2941   44.8239 R4         2 LUT      0.089716
    203 H183       66.5673   64.0610   47.1916 R1         2 LUT      0.094572
    204 H182       65.1044   63.3262   47.7266 R1         2 LUT      0.094572
    205 H181       65.5565   64.9493   48.3045 R1         2 LUT      0.094572
    206 H173       68.9694   61.4797   52.2144 T4         2 LUT      0.093752
    207 H172       69.3989   62.5545   50.9787 T4         2 LUT      0.093752
    208 H171       67.9545   62.8061   52.0115 T4         2 LUT      0.093752
    209 H163       68.0586   59.0682   50.5508 T4         2 LUT      0.093752
    210 H162       68.3672   59.7508   48.9649 T4         2 LUT      0.093752
    211 H161       69.4799   59.9466   50.2046 T4         2 LUT      0.093752
    212 HO3        65.4422   62.3450   53.0081 Q1         2 LUT      0.300121
    213 H8         69.5327   62.5406   47.5751 U7         2 LUT      0.080784
    214 H7         66.9358   61.0719   47.3499 U6         2 LUT      0.042190
    215 H42        64.8188   64.0461   50.2953 U5         2 LUT      0.145166
    216 H41        66.4231   64.0856   51.2095 U5         2 LUT      0.145166
    217 H35        76.4055   65.3986   42.8563 T3         2 LUT      0.077919
    218 H34        77.4894   63.9157   40.5018 T2         2 LUT      0.073626
    219 H32        79.5315   64.3004   39.9171 T1         2 LUT      0.092510
    220 H31        81.0197   66.8411   40.5306 U9         2 LUT      0.070048
    221 H30        81.6865   64.4652   38.7274 U8         2 LUT      0.085442
    222 H3         64.4428   61.8972   50.4688 U3         2 LUT     -0.031596
    223 H28        83.5780   64.6452   37.1985 U7         2 LUT      0.084728
    224 H27        85.2967   67.1553   37.5690 U6         2 LUT      0.087291
    225 H26        85.2588   64.7309   35.7362 Q6         2 LUT      0.075325
    226 H24        86.3996   67.0694   32.8092 Q5         2 LUT      0.094482
    227 H23        88.6385   66.8013   34.2425 U3         2 LUT     -0.024869
    228 H22        65.8780   60.2885   50.1213 U2         2 LUT      0.127376
    229 H21        66.4005   60.3905   51.7838 U2         2 LUT      0.127376
    230 H15        75.3643   63.1521   40.9829 T3         2 LUT      0.093200
    231 H14        74.1505   64.3207   43.4997 T2         2 LUT      0.068865
    232 H12        72.3035   63.6249   44.3221 T1         2 LUT      0.095507
    233 H11        71.0803   61.1668   43.3751 U9         2 LUT      0.068930
    234 H10        70.8120   62.9786   45.7008 U8         2 LUT      0.083911
    235 H1         88.1565   64.8861   32.2805 Q1         2 LUT      0.297311
@<TRIPOS>BOND
    1     6     1 1
    2     7     2 1
    3     8     3 1
    4     9     4 1
    5    11     4 1
    6    12     6 1
    7    13     9 1
    8    16     9 1
    9    25     5 1
   10    25    16 1
   11    26    10 1
   12    26    17 1
   13    27    18 1
   14    28    14 1
   15    28    19 1
   16    29    12 1
   17    30    13 1
   18    31    24 1
   19    32     1 1
   20    32    25 1
   21    33    21 1
   22    33    26 1
   23    34    22 1
   24    34    27 1
   25    35    23 1
   26    35    28 1
   27    36    12 1
   28    36    24 1
   29    37    13 1
   30    37    15 1
   31    38    31 1
   32    39    20 1
   33    39    32 1
   34    40     2 1
   35    40    33 1
   36    41     3 1
   37    41    34 1
   38    42     4 1
   39    42    35 1
   40    43    38 1
   41    44     5 1
   42    44    17 1
   43    44    39 1
   44    45    10 1
   45    45    18 1
   46    45    40 1
   47    46    19 1
   48    46    41 1
   49    47    14 1
   50    47    16 1
   51    47    42 1
   52    48    38 1
   53    49    48 1
   54    50    49 1
   55    51    50 1
   56    52    51 1
   57    53    51 1
   58    54    53 1
   59    55    54 1
   60    56    55 1
   61    57    56 1
   62    58    56 1
   63    59    58 1
   64    60    59 1
   65    61    60 1
   66    62    61 1
   67    63    61 1
   68    64    27 1
   69    64    46 1
   70    65     5 1
   71    65    10 1
   72    65    64 1
   73    65    14 1
   74    66    23 1
   75    67    23 1
   76    68    23 1
   77    69    22 1
   78    70    22 1
   79    71    22 1
   80    72    21 1
   81    73    21 1
   82    74    21 1
   83    75    20 1
   84    76    20 1
   85    77    20 1
   86    78    15 1
   87    79    15 1
   88    80    15 1
   89    81     8 1
   90    82     8 1
   91    83     8 1
   92    84     7 1
   93    85     7 1
   94    86     6 1
   95    87     6 1
   96    88     3 1
   97    89     3 1
   98    90     1 1
   99    91     1 1
  100    92    63 1
  101    93    63 1
  102    94    63 1
  103    95    62 1
  104    96    62 1
  105    97    62 1
  106    98    60 1
  107    99    60 1
  108   100    59 1
  109   101    59 1
  110   102    58 1
  111   103    58 1
  112   104    57 1
  113   105    57 1
  114   106    57 1
  115   107    55 1
  116   108    55 1
  117   109    54 1
  118   110    54 1
  119   111    53 1
  120   112    53 1
  121   113    19 1
  122   114    18 1
  123   115    17 1
  124   116     9 1
  125   117     2 1
  126   118    52 1
  127   119    52 1
  128   120    52 1
  129   121    51 1
  130   122    50 1
  131   123    50 1
  132   124    49 1
  133   125    49 1
  134   126    48 1
  135   127    48 1
  136   128    43 1
  137   129    43 1
  138   130    43 1
  139   131    39 1
  140   132    32 1
  141   133    31 1
  142   134    61 1
  143   135    56 1
  144   136    24 1
  145   137    24 1
  146   139   138 1
  147   140   139 1
  148   141   140 1
  149   142   140 1
  150   143   142 1
  151   144   138 1
  152   144   143 1
  153   145   144 1
  154   146   145 1
  155   147   146 1
  156   148   147 1
  157   149   148 1
  158   150   149 1
  159   151   150 1
  160   152   151 1
  161   153   152 1
  162   154   138 1
  163   155   138 1
  164   156   143 1
  165   157   147 1
  166   158   151 1
  167   160   159 1
  168   161   160 1
  169   162   161 1
  170   163   161 1
  171   164   163 1
  172   165   159 1
  173   165   164 1
  174   166   165 1
  175   167   166 1
  176   168   167 1
  177   169   168 1
  178   170   169 1
  179   171   170 1
  180   172   171 1
  181   173   172 1
  182   174   153 1
  183   174   173 1
  184   175   159 1
  185   176   159 1
  186   177   164 1
  187   178   168 1
  188   179   172 1
  189   180   179 1
  190   181   179 1
  191   182   179 1
  192   183   178 1
  193   184   178 1
  194   185   178 1
  195   186   177 1
  196   187   177 1
  197   188   177 1
  198   189   176 1
  199   190   176 1
  200   191   176 1
  201   192   175 1
  202   193   175 1
  203   194   175 1
  204   195   160 1
  205   196   160 1
  206   197   158 1
  207   198   158 1
  208   199   158 1
  209   200   157 1
  210   201   157 1
  211   202   157 1
  212   203   156 1
  213   204   156 1
  214   205   156 1
  215   206   155 1
  216   207   155 1
  217   208   155 1
  218   209   154 1
  219   210   154 1
  220   211   154 1
  221   212   141 1
  222   213   146 1
  223   214   145 1
  224   215   142 1
  225   216   142 1
  226   217   174 1
  227   218   173 1
  228   219   171 1
  229   220   170 1
  230   221   169 1
  231   222   140 1
  232   223   167 1
  233   224   166 1
  234   225   165 1
  235   226   163 1
  236   227   161 1
  237   228   139 1
  238   229   139 1
  239   230   153 1
  240   231   152 1
  241   232   150 1
  242   233   149 1
  243   234   148 1
  244   235   162 1
  245   65    153 1
  246   65    174 1
@<TRIPOS>SUBSTRUCTURE
      1 CLA               1 ****               0 ****  **** 
      2 LUT             138 ****               0 ****  **** 
