@<TRIPOS>MOLECULE
Cpptraj generated mol2 file.
  235   246     2     0     0
SMALL
USER_CHARGES


@<TRIPOS>ATOM
      1 CAA        78.9907   59.3192   33.4961 a2         1 CLA     -0.055900
      2 CAB        79.1120   63.0390   42.6348 c8         1 CLA     -0.148500
      3 CAC        72.2495   58.6312   42.2564 a2         1 CLA     -0.012600
      4 CAD        74.8230   56.8175   34.7078 ck         1 CLA      0.398800
      5 NA         78.0769   59.6601   36.8834 ns         1 CLA     -0.225500
      6 CBA        80.3468   59.2923   32.6755 a2         1 CLA     -0.135000
      7 CBB        79.9740   63.9637   43.1097 c0         1 CLA     -0.395200
      8 CBC        71.9444   57.2068   41.8214 a3         1 CLA     -0.037700
      9 CBD        76.3179   57.3457   34.4682 a1         1 CLA     -0.053900
     10 NB         78.0522   61.0054   39.6432 nm         1 CLA     -0.295700
     11 OBD        74.2447   56.0409   33.9147 o2         1 CLA     -0.494600
     12 CGA        80.9938   57.8745   32.3377 c4         1 CLA      0.827000
     13 CGD        77.3725   56.2788   34.2560 c4         1 CLA      0.655300
     14 ND         75.4234   58.6988   37.6838 nm         1 CLA     -0.291600
     15 CED        78.6529   54.5607   35.3611 a3         1 CLA      0.005400
     16 CHA        76.7084   58.2303   35.5993 cs         1 CLA     -0.123800
     17 CHB        79.7682   61.1079   37.9478 aa         1 CLA     -0.291900
     18 CHC        76.7262   61.1891   41.6816 aa         1 CLA     -0.090400
     19 CHD        73.4562   58.5737   39.1986 aa         1 CLA     -0.052000
     20 CMA        81.4636   59.3899   36.1813 a3         1 CLA     -0.230700
     21 CMB        81.3460   62.9574   39.9877 a3         1 CLA     -0.180800
     22 CMC        74.3556   60.6891   43.7748 a3         1 CLA     -0.134000
     23 CMD        72.1052   56.9319   36.8875 a3         1 CLA     -0.141100
     24 C1         81.9620   55.9064   33.3517 a2         1 CLA      0.023000
     25 C1A        77.8824   58.9760   35.7886 ac         1 CLA     -0.015100
     26 C1B        79.2137   61.5443   39.1856 cr         1 CLA      0.054700
     27 C1C        75.5738   60.4232   41.4604 cn         1 CLA     -0.005600
     28 C1D        74.0776   58.3315   38.0051 ap         1 CLA     -0.047300
     29 O1A        81.0591   57.3752   31.1946 o2         1 CLA     -0.610800
     30 O1D        78.0952   56.1156   33.2698 o2         1 CLA     -0.558200
     31 C2         82.6738   55.7407   34.6925 c8         1 CLA     -0.325100
     32 C2A        79.1758   58.9554   34.9532 a1         1 CLA      0.098600
     33 C2B        79.9704   62.3650   40.1905 cb         1 CLA      0.088500
     34 C2C        74.4204   60.1432   42.2960 cb         1 CLA      0.053700
     35 C2D        73.4647   57.5714   36.9419 cb         1 CLA      0.058900
     36 O2A        81.4343   57.2658   33.5039 o1         1 CLA     -0.437200
     37 O2D        77.4787   55.5018   35.4180 o1         1 CLA     -0.357600
     38 C3         83.8296   55.1055   34.8425 c5         1 CLA      0.031200
     39 C3A        80.1111   59.9700   35.7238 a1         1 CLA      0.166800
     40 C3B        79.0124   62.4111   41.2517 cb         1 CLA      0.035000
     41 C3C        73.5157   59.3684   41.6049 cb         1 CLA     -0.089900
     42 C3D        74.4847   57.4020   35.9697 cb         1 CLA     -0.035900
     43 C4         83.8242   53.6390   35.2382 a3         1 CLA     -0.053300
     44 C4A        79.2663   60.2779   36.8865 ac         1 CLA      0.001800
     45 C4B        77.8801   61.5208   40.9209 cn         1 CLA     -0.020900
     46 C4C        74.0509   59.2444   40.3260 cr         1 CLA     -0.044400
     47 C4D        75.6180   58.1628   36.4863 c6         1 CLA     -0.046000
     48 C5         85.1748   55.8088   34.5860 a2         1 CLA     -0.070400
     49 C6         85.5863   56.9065   35.5816 a2         1 CLA      0.043900
     50 C7         85.5904   56.3815   37.0283 a2         1 CLA     -0.150000
     51 C8         85.9945   57.4704   38.1279 a1         1 CLA      0.064200
     52 C9         87.3024   58.1921   37.7958 a3         1 CLA     -0.259300
     53 C10        85.9649   56.9772   39.5306 a2         1 CLA     -0.071900
     54 C11        85.9058   57.8988   40.7577 a2         1 CLA      0.014500
     55 C12        86.3083   57.1480   42.0229 a2         1 CLA     -0.112100
     56 C13        86.2096   58.0633   43.3333 a1         1 CLA      0.089200
     57 C14        87.3734   57.5943   44.2631 a3         1 CLA     -0.239100
     58 C15        84.8840   57.8464   44.0291 a2         1 CLA     -0.102200
     59 C16        83.6236   58.3935   43.3806 a2         1 CLA      0.023900
     60 C17        82.3890   58.1689   44.2856 a2         1 CLA     -0.105700
     61 C18        81.1443   59.0645   43.9065 a1         1 CLA      0.206800
     62 C19        80.0009   58.6494   44.8456 a3         1 CLA     -0.280100
     63 C20        81.4455   60.5093   43.9198 a3         1 CLA     -0.280100
     64 NC         75.3487   59.7770   40.2538 nx         1 CLA     -0.309200
     65 MG         76.6345   59.8809   38.4903 mg         1 CLA      0.895000
     66 HMD3       71.2876   57.6248   36.7929 dc         1 CLA      0.064300
     67 HMD2       71.9785   56.2052   36.1331 dc         1 CLA      0.064300
     68 HMD1       71.9765   56.3468   37.8073 dc         1 CLA      0.064300
     69 HMC3       73.2951   60.8727   44.0223 dc         1 CLA      0.052100
     70 HMC2       74.8093   59.9360   44.3998 dc         1 CLA      0.052100
     71 HMC1       74.8820   61.6102   43.9465 dc         1 CLA      0.052100
     72 HMB3       81.1301   64.0308   39.9726 dc         1 CLA      0.063600
     73 HMB2       82.0711   62.6533   40.7184 dc         1 CLA      0.063600
     74 HMB1       81.8414   62.7076   39.0438 dc         1 CLA      0.063600
     75 HMA3       81.3580   58.3178   36.2261 dc         1 CLA      0.058300
     76 HMA2       82.1958   59.5100   35.3665 dc         1 CLA      0.058300
     77 HMA1       81.7928   59.7570   37.1601 dc         1 CLA      0.058300
     78 HED3       78.7064   54.1189   36.3625 dc         1 CLA      0.079300
     79 HED2       78.4733   53.7029   34.7233 dc         1 CLA      0.079300
     80 HED1       79.7010   54.9278   35.2387 dc         1 CLA      0.079300
     81 HBC3       72.8163   56.6291   41.7399 dc         1 CLA      0.016300
     82 HBC2       71.2225   56.8305   42.4739 dc         1 CLA      0.016300
     83 HBC1       71.5973   57.1180   40.8119 dc         1 CLA      0.016300
     84 HBB2       79.9353   64.3576   44.1300 da         1 CLA      0.183000
     85 HBB1       80.6216   64.4975   42.4565 da         1 CLA      0.183000
     86 HBA2       80.0614   59.7485   31.7272 dc         1 CLA      0.029400
     87 HBA1       81.0719   59.9287   33.1763 dc         1 CLA      0.029400
     88 HAC2       72.3742   58.5995   43.3608 dc         1 CLA      0.029300
     89 HAC1       71.4057   59.3039   42.0419 dc         1 CLA      0.029300
     90 HAA2       78.1897   58.7360   33.0108 dc         1 CLA      0.028700
     91 HAA1       78.5686   60.3341   33.4499 dc         1 CLA      0.028700
     92 H203       82.1047   60.7805   43.1484 dc         1 CLA      0.065600
     93 H202       80.5556   61.1808   43.9620 dc         1 CLA      0.065600
     94 H201       81.9604   60.6931   44.8595 dc         1 CLA      0.065600
     95 H193       79.1479   59.1681   44.4634 dc         1 CLA      0.065600
     96 H192       79.8183   57.5967   44.6323 dc         1 CLA      0.065600
     97 H191       80.0803   58.9477   45.9009 dc         1 CLA      0.065600
     98 H172       82.1535   57.0964   44.2852 dc         1 CLA      0.027600
     99 H171       82.7561   58.4673   45.2725 dc         1 CLA      0.027600
    100 H162       83.7667   59.4854   43.0882 dc         1 CLA      0.002900
    101 H161       83.5524   57.7128   42.4732 dc         1 CLA      0.002900
    102 H152       84.8136   56.7728   44.2419 dc         1 CLA      0.029100
    103 H151       84.9616   58.2612   45.0701 dc         1 CLA      0.029100
    104 H143       87.4006   56.5927   44.6796 dc         1 CLA      0.063600
    105 H142       88.2948   57.7962   43.7088 dc         1 CLA      0.063600
    106 H141       87.3097   58.2368   45.0824 dc         1 CLA      0.063600
    107 H122       85.7678   56.1776   42.1629 dc         1 CLA      0.032500
    108 H121       87.3693   56.8947   41.7888 dc         1 CLA      0.032500
    109 H112       86.5677   58.7996   40.6716 dc         1 CLA      0.006600
    110 H111       84.7865   58.2122   40.8382 dc         1 CLA      0.006600
    111 H102       85.1442   56.3830   39.8000 dc         1 CLA      0.024100
    112 H101       86.9216   56.3190   39.5914 dc         1 CLA      0.024100
    113 HHD        72.4533   58.2196   39.3647 da         1 CLA      0.174300
    114 HHC        76.6796   61.8017   42.5941 da         1 CLA      0.136800
    115 HHB        80.6937   61.5292   37.6696 da         1 CLA      0.138300
    116 HBD        76.3147   57.8198   33.5090 dc         1 CLA      0.107700
    117 HAB        78.4692   62.5793   43.3501 da         1 CLA      0.155200
    118 H93        87.7978   58.5778   38.6662 dc         1 CLA      0.069500
    119 H92        87.9691   57.4133   37.5574 dc         1 CLA      0.069500
    120 H91        87.2068   58.9619   36.9613 dc         1 CLA      0.069500
    121 H8         85.2257   58.1248   37.9173 dc         1 CLA      0.029300
    122 H72        84.6030   55.9845   37.1890 dc         1 CLA      0.044400
    123 H71        86.3728   55.6645   37.1584 dc         1 CLA      0.044400
    124 H62        86.5987   57.2345   35.3485 dc         1 CLA      0.015600
    125 H61        84.7351   57.6031   35.5763 dc         1 CLA      0.015600
    126 H52        85.9829   55.0838   34.4965 dc         1 CLA      0.033200
    127 H51        85.1646   56.3400   33.6002 dc         1 CLA      0.033200
    128 H43        82.7670   53.3352   35.4649 dc         1 CLA      0.037000
    129 H42        84.1305   52.9508   34.3984 dc         1 CLA      0.037000
    130 H41        84.4030   53.4205   36.0951 dc         1 CLA      0.037000
    131 H3A        80.3450   60.8610   35.0934 dc         1 CLA      0.041100
    132 H2A        79.5776   57.9795   35.0242 dc         1 CLA      0.083100
    133 H2         82.4208   56.3057   35.5562 da         1 CLA      0.180900
    134 H18        80.7914   58.8709   42.9060 dc         1 CLA     -0.003900
    135 H13        86.5165   59.0324   43.1055 dc         1 CLA      0.019700
    136 H12        81.1282   55.3085   33.1796 dc         1 CLA      0.120400
    137 H11        82.6095   55.8471   32.5351 dc         1 CLA      0.120400
    138 C1         69.1675   62.6624   49.5120 Z1         2 LUT      0.509236
    139 C2         67.6729   62.4427   50.0013 Z2         2 LUT     -0.434695
    140 C3         66.9313   63.6825   50.3893 Z3         2 LUT      0.437453
    141 O3         66.8006   63.7243   51.8150 S1         2 LUT     -0.547129
    142 C4         67.5731   65.0153   49.8384 Z4         2 LUT     -0.468603
    143 C5         68.2813   64.7727   48.5020 Z5         2 LUT      0.279246
    144 C6         69.2149   63.7669   48.4033 Z6         2 LUT     -0.305473
    145 C7         69.5365   63.2466   47.0915 Z7         2 LUT      0.069402
    146 C8         70.5559   63.7080   46.3065 Z8         2 LUT     -0.191631
    147 C9         70.9613   63.2184   44.9841 Z9         2 LUT      0.196698
    148 C10        72.1089   63.7759   44.4811 Y1         2 LUT     -0.208611
    149 C11        72.7734   63.5560   43.2274 Y2         2 LUT      0.030784
    150 C12        73.9254   64.2861   42.8917 Y3         2 LUT     -0.220316
    151 C13        74.7622   64.2496   41.7013 Y4         2 LUT      0.215937
    152 C14        75.9429   64.9452   41.8209 Y5         2 LUT     -0.185793
    153 C15        76.9534   65.1374   40.8625 Y6         2 LUT     -0.057835
    154 C16        69.6576   61.2316   49.2922 Y7         2 LUT     -0.405615
    155 C17        70.1057   63.1249   50.6417 Y7         2 LUT     -0.405615
    156 C18        67.4946   65.2878   47.3165 Y9         2 LUT     -0.369639
    157 C19        70.1927   62.0614   44.2949 W1         2 LUT     -0.333362
    158 C20        74.1893   63.7581   40.3654 W2         2 LUT     -0.323439
    159 C21        88.3118   66.0225   34.4972 Z1         2 LUT      0.406104
    160 C22        89.0494   65.3459   33.2770 Z2         2 LUT     -0.404965
    161 C23        89.1436   66.1913   32.0315 Z3         2 LUT      0.391255
    162 O23        89.4652   65.2783   30.9651 S1         2 LUT     -0.528210
    163 C24        87.8344   66.8870   31.7692 W6         2 LUT     -0.258361
    164 C25        86.7905   67.0318   32.6747 Z5         2 LUT      0.133546
    165 C26        86.8571   66.4135   34.0010 W8         2 LUT     -0.147008
    166 C27        86.1643   67.1638   35.1186 Z7         2 LUT      0.023843
    167 C28        85.0144   66.7851   35.7423 Z8         2 LUT     -0.216987
    168 C29        84.3864   67.4218   37.0002 Z9         2 LUT      0.206524
    169 C30        83.1624   66.8774   37.4421 Y1         2 LUT     -0.215556
    170 C31        82.3214   67.2318   38.5162 Y2         2 LUT      0.025142
    171 C32        81.1751   66.6046   38.7590 Y3         2 LUT     -0.212209
    172 C33        80.2131   66.7890   39.8759 Y4         2 LUT      0.240937
    173 C34        79.0816   66.0342   39.9006 Y5         2 LUT     -0.218862
    174 C35        77.9959   66.0182   40.9145 Y6         2 LUT     -0.023547
    175 C36        89.2829   67.1433   34.8999 Y7         2 LUT     -0.393485
    176 C37        88.2952   65.0033   35.6939 Y7         2 LUT     -0.393485
    177 C38        85.6078   67.8124   32.1454 Y9         2 LUT     -0.387526
    178 C39        85.0506   68.6899   37.5605 W1         2 LUT     -0.322618
    179 C40        80.7073   67.7574   40.9185 W2         2 LUT     -0.358472
    180 H403       81.6967   67.4671   41.1180 R7         2 LUT      0.097720
    181 H402       80.7151   68.7953   40.5744 R7         2 LUT      0.097720
    182 H401       80.2620   67.7131   41.8622 R7         2 LUT      0.097720
    183 H393       84.5585   68.9978   38.5347 R4         2 LUT      0.082505
    184 H392       86.0932   68.5160   37.7930 R4         2 LUT      0.082505
    185 H391       84.9668   69.5045   36.8323 R4         2 LUT      0.082505
    186 H383       85.7808   68.2787   31.1680 R1         2 LUT      0.104030
    187 H382       84.7071   67.1528   32.2684 R1         2 LUT      0.104030
    188 H381       85.4290   68.5910   32.8660 R1         2 LUT      0.104030
    189 H373       89.3706   64.8417   36.0327 T4         2 LUT      0.089537
    190 H372       87.8053   65.2964   36.5930 T4         2 LUT      0.089537
    191 H371       87.8166   64.0436   35.4342 T4         2 LUT      0.089537
    192 H363       89.4102   67.9397   34.1951 T4         2 LUT      0.089537
    193 H362       88.9356   67.5983   35.8671 T4         2 LUT      0.089537
    194 H361       90.1755   66.6835   35.1801 T4         2 LUT      0.089537
    195 H222       90.0709   65.0214   33.3988 U2         2 LUT      0.127376
    196 H221       88.4530   64.4707   32.9793 U2         2 LUT      0.127376
    197 H203       73.0957   63.8392   40.3561 R7         2 LUT      0.087068
    198 H202       74.7322   64.3114   39.5701 R7         2 LUT      0.087068
    199 H201       74.5119   62.7571   40.1953 R7         2 LUT      0.087068
    200 H193       70.6473   61.0444   44.5650 R4         2 LUT      0.089716
    201 H192       69.1474   62.1272   44.5735 R4         2 LUT      0.089716
    202 H191       70.1833   62.1261   43.2009 R4         2 LUT      0.089716
    203 H183       66.7881   64.5228   46.9947 R1         2 LUT      0.094572
    204 H182       66.8218   66.1130   47.6900 R1         2 LUT      0.094572
    205 H181       68.0676   65.6635   46.4773 R1         2 LUT      0.094572
    206 H173       69.8222   64.0494   51.1178 T4         2 LUT      0.093752
    207 H172       70.2340   62.3895   51.4474 T4         2 LUT      0.093752
    208 H171       71.1690   63.2831   50.2825 T4         2 LUT      0.093752
    209 H163       69.1490   60.8304   48.4537 T4         2 LUT      0.093752
    210 H162       70.6709   61.1553   48.8612 T4         2 LUT      0.093752
    211 H161       69.4486   60.4531   50.1005 T4         2 LUT      0.093752
    212 HO3        66.1072   63.1347   52.2315 Q1         2 LUT      0.300121
    213 H8         71.1962   64.5542   46.7568 U7         2 LUT      0.080784
    214 H7         68.9608   62.4993   46.6119 U6         2 LUT      0.042190
    215 H42        66.8185   65.7373   49.8065 U5         2 LUT      0.145166
    216 H41        68.2168   65.3869   50.6577 U5         2 LUT      0.145166
    217 H35        78.0827   66.5804   41.8497 T3         2 LUT      0.077919
    218 H34        78.9896   65.2959   39.1156 T2         2 LUT      0.073626
    219 H32        80.8471   65.7884   38.0497 T1         2 LUT      0.092510
    220 H31        82.7082   67.9886   39.1836 U9         2 LUT      0.070048
    221 H30        82.9200   65.9320   36.9990 U8         2 LUT      0.085442
    222 H3         65.9032   63.7503   49.9709 U3         2 LUT     -0.031596
    223 H28        84.5509   65.8502   35.4983 U7         2 LUT      0.084728
    224 H27        86.5991   68.0478   35.5254 U6         2 LUT      0.087291
    225 H26        86.2746   65.5080   33.8326 Q6         2 LUT      0.075325
    226 H24        87.7453   67.3583   30.8607 Q5         2 LUT      0.094482
    227 H23        89.9572   66.8880   32.1920 U3         2 LUT     -0.024869
    228 H22        67.0926   62.0988   49.1385 U2         2 LUT      0.127376
    229 H21        67.6103   61.6524   50.7183 U2         2 LUT      0.127376
    230 H15        77.0148   64.4675   39.9524 T3         2 LUT      0.093200
    231 H14        76.1717   65.5466   42.6478 T2         2 LUT      0.068865
    232 H12        74.3529   64.9689   43.6132 T1         2 LUT      0.095507
    233 H11        72.4043   62.8928   42.4854 U9         2 LUT      0.068930
    234 H10        72.6430   64.4713   45.1328 U8         2 LUT      0.083911
    235 H1         89.6854   65.7214   30.1350 Q1         2 LUT      0.297311
@<TRIPOS>BOND
    1     6     1 1
    2     7     2 1
    3     8     3 1
    4     9     4 1
    5    11     4 1
    6    12     6 1
    7    13     9 1
    8    16     9 1
    9    25     5 1
   10    25    16 1
   11    26    10 1
   12    26    17 1
   13    27    18 1
   14    28    14 1
   15    28    19 1
   16    29    12 1
   17    30    13 1
   18    31    24 1
   19    32     1 1
   20    32    25 1
   21    33    21 1
   22    33    26 1
   23    34    22 1
   24    34    27 1
   25    35    23 1
   26    35    28 1
   27    36    12 1
   28    36    24 1
   29    37    13 1
   30    37    15 1
   31    38    31 1
   32    39    20 1
   33    39    32 1
   34    40     2 1
   35    40    33 1
   36    41     3 1
   37    41    34 1
   38    42     4 1
   39    42    35 1
   40    43    38 1
   41    44     5 1
   42    44    17 1
   43    44    39 1
   44    45    10 1
   45    45    18 1
   46    45    40 1
   47    46    19 1
   48    46    41 1
   49    47    14 1
   50    47    16 1
   51    47    42 1
   52    48    38 1
   53    49    48 1
   54    50    49 1
   55    51    50 1
   56    52    51 1
   57    53    51 1
   58    54    53 1
   59    55    54 1
   60    56    55 1
   61    57    56 1
   62    58    56 1
   63    59    58 1
   64    60    59 1
   65    61    60 1
   66    62    61 1
   67    63    61 1
   68    64    27 1
   69    64    46 1
   70    65     5 1
   71    65    10 1
   72    65    64 1
   73    65    14 1
   74    66    23 1
   75    67    23 1
   76    68    23 1
   77    69    22 1
   78    70    22 1
   79    71    22 1
   80    72    21 1
   81    73    21 1
   82    74    21 1
   83    75    20 1
   84    76    20 1
   85    77    20 1
   86    78    15 1
   87    79    15 1
   88    80    15 1
   89    81     8 1
   90    82     8 1
   91    83     8 1
   92    84     7 1
   93    85     7 1
   94    86     6 1
   95    87     6 1
   96    88     3 1
   97    89     3 1
   98    90     1 1
   99    91     1 1
  100    92    63 1
  101    93    63 1
  102    94    63 1
  103    95    62 1
  104    96    62 1
  105    97    62 1
  106    98    60 1
  107    99    60 1
  108   100    59 1
  109   101    59 1
  110   102    58 1
  111   103    58 1
  112   104    57 1
  113   105    57 1
  114   106    57 1
  115   107    55 1
  116   108    55 1
  117   109    54 1
  118   110    54 1
  119   111    53 1
  120   112    53 1
  121   113    19 1
  122   114    18 1
  123   115    17 1
  124   116     9 1
  125   117     2 1
  126   118    52 1
  127   119    52 1
  128   120    52 1
  129   121    51 1
  130   122    50 1
  131   123    50 1
  132   124    49 1
  133   125    49 1
  134   126    48 1
  135   127    48 1
  136   128    43 1
  137   129    43 1
  138   130    43 1
  139   131    39 1
  140   132    32 1
  141   133    31 1
  142   134    61 1
  143   135    56 1
  144   136    24 1
  145   137    24 1
  146   139   138 1
  147   140   139 1
  148   141   140 1
  149   142   140 1
  150   143   142 1
  151   144   138 1
  152   144   143 1
  153   145   144 1
  154   146   145 1
  155   147   146 1
  156   148   147 1
  157   149   148 1
  158   150   149 1
  159   151   150 1
  160   152   151 1
  161   153   152 1
  162   154   138 1
  163   155   138 1
  164   156   143 1
  165   157   147 1
  166   158   151 1
  167   160   159 1
  168   161   160 1
  169   162   161 1
  170   163   161 1
  171   164   163 1
  172   165   159 1
  173   165   164 1
  174   166   165 1
  175   167   166 1
  176   168   167 1
  177   169   168 1
  178   170   169 1
  179   171   170 1
  180   172   171 1
  181   173   172 1
  182   174   153 1
  183   174   173 1
  184   175   159 1
  185   176   159 1
  186   177   164 1
  187   178   168 1
  188   179   172 1
  189   180   179 1
  190   181   179 1
  191   182   179 1
  192   183   178 1
  193   184   178 1
  194   185   178 1
  195   186   177 1
  196   187   177 1
  197   188   177 1
  198   189   176 1
  199   190   176 1
  200   191   176 1
  201   192   175 1
  202   193   175 1
  203   194   175 1
  204   195   160 1
  205   196   160 1
  206   197   158 1
  207   198   158 1
  208   199   158 1
  209   200   157 1
  210   201   157 1
  211   202   157 1
  212   203   156 1
  213   204   156 1
  214   205   156 1
  215   206   155 1
  216   207   155 1
  217   208   155 1
  218   209   154 1
  219   210   154 1
  220   211   154 1
  221   212   141 1
  222   213   146 1
  223   214   145 1
  224   215   142 1
  225   216   142 1
  226   217   174 1
  227   218   173 1
  228   219   171 1
  229   220   170 1
  230   221   169 1
  231   222   140 1
  232   223   167 1
  233   224   166 1
  234   225   165 1
  235   226   163 1
  236   227   161 1
  237   228   139 1
  238   229   139 1
  239   230   153 1
  240   231   152 1
  241   232   150 1
  242   233   149 1
  243   234   148 1
  244   235   162 1
  245   65    153 1
  246   65    174 1
@<TRIPOS>SUBSTRUCTURE
      1 CLA               1 ****               0 ****  **** 
      2 LUT             138 ****               0 ****  **** 
