@<TRIPOS>MOLECULE
Cpptraj generated mol2 file.
  235   246     2     0     0
SMALL
USER_CHARGES


@<TRIPOS>ATOM
      1 CAA        77.8735   58.2923   34.6555 a2         1 CLA     -0.055900
      2 CAB        78.1961   62.5414   43.5076 c8         1 CLA     -0.148500
      3 CAC        71.2856   58.3577   43.4418 a2         1 CLA     -0.012600
      4 CAD        73.7569   55.8734   36.1076 ck         1 CLA      0.398800
      5 NA         76.8946   59.1350   38.0754 ns         1 CLA     -0.225500
      6 CBA        79.1850   58.0711   33.8691 a2         1 CLA     -0.135000
      7 CBB        77.1622   63.3178   44.0622 c0         1 CLA     -0.395200
      8 CBC        71.5547   56.8502   43.6040 a3         1 CLA     -0.037700
      9 CBD        75.3520   56.2355   35.9326 a1         1 CLA     -0.053900
     10 NB         76.9110   60.5984   40.6834 nm         1 CLA     -0.295700
     11 OBD        73.1111   55.1026   35.4268 o2         1 CLA     -0.494600
     12 CGA        79.5238   56.6404   33.5919 c4         1 CLA      0.827000
     13 CGD        76.1859   54.9166   36.1539 c4         1 CLA      0.655300
     14 ND         74.1493   58.0423   38.8357 nm         1 CLA     -0.291600
     15 CED        76.3462   52.9619   37.5838 a3         1 CLA      0.005400
     16 CHA        75.6049   57.3726   36.9050 cs         1 CLA     -0.123800
     17 CHB        78.6010   60.6582   38.9084 aa         1 CLA     -0.291900
     18 CHC        75.6540   60.7683   42.7497 aa         1 CLA     -0.090400
     19 CHD        72.5109   57.8556   40.5168 aa         1 CLA     -0.052000
     20 CMA        80.2641   58.3722   37.6922 a3         1 CLA     -0.230700
     21 CMB        80.2994   62.2780   40.9614 a3         1 CLA     -0.180800
     22 CMC        73.5319   60.2959   44.9077 a3         1 CLA     -0.134000
     23 CMD        71.0022   56.0685   38.5455 a3         1 CLA     -0.141100
     24 C1         80.5751   54.6264   34.5659 a2         1 CLA      0.023000
     25 C1A        76.7937   58.1130   37.0994 ac         1 CLA     -0.015100
     26 C1B        78.1041   60.9601   40.1678 cr         1 CLA      0.054700
     27 C1C        74.4456   60.0950   42.5027 cn         1 CLA     -0.005600
     28 C1D        72.9527   57.6192   39.2256 ap         1 CLA     -0.047300
     29 O1A        79.1937   55.9960   32.5659 o2         1 CLA     -0.610800
     30 O1D        76.9591   54.3876   35.3751 o2         1 CLA     -0.558200
     31 C2         80.7595   54.0608   35.9683 c8         1 CLA     -0.325100
     32 C2A        78.1000   58.0650   36.2489 a1         1 CLA      0.098600
     33 C2B        78.8619   61.7219   41.1311 cb         1 CLA      0.088500
     34 C2C        73.4247   59.8229   43.4711 cb         1 CLA      0.053700
     35 C2D        72.3632   56.7515   38.3117 cb         1 CLA      0.058900
     36 O2A        80.3034   56.0803   34.5713 o1         1 CLA     -0.437200
     37 O2D        75.9118   54.3571   37.3865 o1         1 CLA     -0.357600
     38 C3         81.8899   53.8816   36.6598 c5         1 CLA      0.031200
     39 C3A        79.0681   59.1059   36.9890 a1         1 CLA      0.166800
     40 C3B        77.9902   61.8617   42.3055 cb         1 CLA      0.035000
     41 C3C        72.5158   59.0244   42.8548 cb         1 CLA     -0.089900
     42 C3D        73.3795   56.5563   37.2899 cb         1 CLA     -0.035900
     43 C4         82.9043   52.8176   36.4322 a3         1 CLA     -0.053300
     44 C4A        78.0985   59.7165   38.0115 ac         1 CLA      0.001800
     45 C4B        76.7891   61.1482   41.9397 cn         1 CLA     -0.020900
     46 C4C        73.0086   58.8012   41.4856 cr         1 CLA     -0.044400
     47 C4D        74.5049   57.4231   37.7137 c6         1 CLA     -0.046000
     48 C5         82.2786   54.7443   37.8174 a2         1 CLA     -0.070400
     49 C6         83.2311   55.8506   37.4921 a2         1 CLA      0.043900
     50 C7         83.4353   56.5944   38.8349 a2         1 CLA     -0.150000
     51 C8         84.4299   57.8379   38.7054 a1         1 CLA      0.064200
     52 C9         85.8126   57.4278   38.2455 a3         1 CLA     -0.259300
     53 C10        84.5559   58.6286   40.0988 a2         1 CLA     -0.071900
     54 C11        83.1919   58.8579   40.8787 a2         1 CLA      0.014500
     55 C12        83.3359   59.8241   42.0898 a2         1 CLA     -0.112100
     56 C13        84.4214   59.5053   43.1300 a1         1 CLA      0.089200
     57 C14        84.2295   58.1085   43.8522 a3         1 CLA     -0.239100
     58 C15        84.6817   60.6427   44.0823 a2         1 CLA     -0.102200
     59 C16        83.5418   61.3093   44.8284 a2         1 CLA      0.023900
     60 C17        84.1672   62.1441   45.9496 a2         1 CLA     -0.105700
     61 C18        83.1986   62.7760   46.9054 a1         1 CLA      0.206800
     62 C19        83.8490   63.3544   48.1807 a3         1 CLA     -0.280100
     63 C20        82.2755   63.8508   46.2584 a3         1 CLA     -0.280100
     64 NC         74.2104   59.4587   41.3177 nx         1 CLA     -0.309200
     65 MG         75.4658   59.3968   39.6308 mg         1 CLA      0.895000
     66 HMD3       70.2790   56.8642   38.4593 dc         1 CLA      0.064300
     67 HMD2       71.0433   55.2562   37.8133 dc         1 CLA      0.064300
     68 HMD1       70.9974   55.6265   39.5510 dc         1 CLA      0.064300
     69 HMC3       73.7658   61.3650   44.9888 dc         1 CLA      0.052100
     70 HMC2       72.5364   60.1237   45.4172 dc         1 CLA      0.052100
     71 HMC1       74.2946   59.8069   45.5253 dc         1 CLA      0.052100
     72 HMB3       80.5775   62.8233   41.9136 dc         1 CLA      0.063600
     73 HMB2       80.9750   61.4709   40.6849 dc         1 CLA      0.063600
     74 HMB1       80.3898   63.0271   40.1359 dc         1 CLA      0.063600
     75 HMA3       79.8510   57.6531   38.4826 dc         1 CLA      0.058300
     76 HMA2       80.8818   57.8706   36.9517 dc         1 CLA      0.058300
     77 HMA1       80.8987   59.1889   38.0745 dc         1 CLA      0.058300
     78 HED3       77.3610   53.0468   37.8073 dc         1 CLA      0.079300
     79 HED2       75.9294   52.4865   38.4495 dc         1 CLA      0.079300
     80 HED1       76.2269   52.3560   36.6549 dc         1 CLA      0.079300
     81 HBC3       70.6924   56.3076   43.9302 dc         1 CLA      0.016300
     82 HBC2       71.8778   56.3344   42.6952 dc         1 CLA      0.016300
     83 HBC1       72.3530   56.7875   44.3813 dc         1 CLA      0.016300
     84 HBB2       77.2613   63.7869   45.0304 da         1 CLA      0.183000
     85 HBB1       76.2067   63.3513   43.6275 da         1 CLA      0.183000
     86 HBA2       79.1324   58.6903   33.0047 dc         1 CLA      0.029400
     87 HBA1       79.9989   58.3789   34.5477 dc         1 CLA      0.029400
     88 HAC2       70.9938   58.6662   44.4726 dc         1 CLA      0.029300
     89 HAC1       70.4651   58.4798   42.7672 dc         1 CLA      0.029300
     90 HAA2       77.0750   57.7693   34.2143 dc         1 CLA      0.028700
     91 HAA1       77.5738   59.3336   34.5207 dc         1 CLA      0.028700
     92 H203       82.7794   64.8185   46.2250 dc         1 CLA      0.065600
     93 H202       81.8732   63.6232   45.2446 dc         1 CLA      0.065600
     94 H201       81.4227   64.0358   46.9128 dc         1 CLA      0.065600
     95 H193       84.3977   64.2477   48.0584 dc         1 CLA      0.065600
     96 H192       83.2263   63.6273   48.9908 dc         1 CLA      0.065600
     97 H191       84.4111   62.5429   48.5802 dc         1 CLA      0.065600
     98 H172       84.5922   61.3601   46.5739 dc         1 CLA      0.027600
     99 H171       84.8797   62.8030   45.4547 dc         1 CLA      0.027600
    100 H162       82.9875   61.9667   44.1590 dc         1 CLA      0.002900
    101 H161       82.7786   60.6532   45.1957 dc         1 CLA      0.002900
    102 H152       85.4076   60.2650   44.8029 dc         1 CLA      0.029100
    103 H151       85.0690   61.4401   43.4559 dc         1 CLA      0.029100
    104 H143       84.2121   57.2989   43.1919 dc         1 CLA      0.063600
    105 H142       84.9335   57.8181   44.6081 dc         1 CLA      0.063600
    106 H141       83.2383   58.1137   44.4365 dc         1 CLA      0.063600
    107 H122       83.3164   60.7497   41.5787 dc         1 CLA      0.032500
    108 H121       82.3617   59.7030   42.5646 dc         1 CLA      0.032500
    109 H112       82.3719   59.2594   40.2120 dc         1 CLA      0.006600
    110 H111       82.7315   57.8869   41.2457 dc         1 CLA      0.006600
    111 H102       85.1218   57.9992   40.8738 dc         1 CLA      0.024100
    112 H101       85.0284   59.5361   39.8803 dc         1 CLA      0.024100
    113 HHD        71.5803   57.4114   40.9017 da         1 CLA      0.174300
    114 HHC        75.7693   61.0043   43.8239 da         1 CLA      0.136800
    115 HHB        79.5551   61.1010   38.5894 da         1 CLA      0.138300
    116 HBD        75.3776   56.5647   34.8792 dc         1 CLA      0.107700
    117 HAB        79.1191   62.6851   43.8922 da         1 CLA      0.155200
    118 H93        86.2664   56.7994   38.9866 dc         1 CLA      0.069500
    119 H92        85.8569   57.1160   37.2519 dc         1 CLA      0.069500
    120 H91        86.3805   58.3327   38.2899 dc         1 CLA      0.069500
    121 H8         84.0075   58.6121   38.0079 dc         1 CLA      0.029300
    122 H72        82.4734   57.0172   39.1083 dc         1 CLA      0.044400
    123 H71        83.9582   55.9756   39.6030 dc         1 CLA      0.044400
    124 H62        84.1603   55.4866   37.1338 dc         1 CLA      0.015600
    125 H61        82.8150   56.5317   36.7750 dc         1 CLA      0.015600
    126 H52        81.2761   55.1122   38.1796 dc         1 CLA      0.033200
    127 H51        82.7299   54.1701   38.5685 dc         1 CLA      0.033200
    128 H43        83.0038   52.2285   37.3995 dc         1 CLA      0.037000
    129 H42        82.5678   52.1813   35.6488 dc         1 CLA      0.037000
    130 H41        83.8928   53.3222   36.1974 dc         1 CLA      0.037000
    131 H3A        79.4187   59.9264   36.3811 dc         1 CLA      0.041100
    132 H2A        78.4681   57.0440   36.3775 dc         1 CLA      0.083100
    133 H2         79.7983   53.6623   36.2897 da         1 CLA      0.180900
    134 H18        82.5416   62.0186   47.3468 dc         1 CLA     -0.003900
    135 H13        85.3866   59.4428   42.5813 dc         1 CLA      0.019700
    136 H12        79.7688   54.0687   34.1263 dc         1 CLA      0.120400
    137 H11        81.4748   54.3789   34.0228 dc         1 CLA      0.120400
    138 C1         67.7601   62.5866   50.7705 Z1         2 LUT      0.509236
    139 C2         67.5913   63.8871   51.6596 Z2         2 LUT     -0.434695
    140 C3         66.1448   64.4462   51.6105 Z3         2 LUT      0.437453
    141 O3         66.2957   65.8557   51.7820 S1         2 LUT     -0.547129
    142 C4         65.4124   64.1069   50.3439 Z4         2 LUT     -0.468603
    143 C5         66.1943   63.7268   49.2397 Z5         2 LUT      0.279246
    144 C6         67.2825   62.9335   49.3483 Z6         2 LUT     -0.305473
    145 C7         68.1276   62.4980   48.2584 Z7         2 LUT      0.069402
    146 C8         68.8554   63.1802   47.3200 Z8         2 LUT     -0.191631
    147 C9         69.4543   62.5707   46.0917 Z9         2 LUT      0.196698
    148 C10        70.3695   63.2677   45.4319 Y1         2 LUT     -0.208611
    149 C11        71.0697   62.9489   44.2133 Y2         2 LUT      0.030784
    150 C12        72.1887   63.5445   43.7082 Y3         2 LUT     -0.220316
    151 C13        72.9140   63.2995   42.4253 Y4         2 LUT      0.215937
    152 C14        74.1282   63.8867   42.1619 Y5         2 LUT     -0.185793
    153 C15        75.0931   63.8040   41.1096 Y6         2 LUT     -0.057835
    154 C16        66.8830   61.3880   51.4083 Y7         2 LUT     -0.405615
    155 C17        69.2764   62.1227   50.9384 Y7         2 LUT     -0.405615
    156 C18        65.8153   64.4328   47.9704 Y9         2 LUT     -0.369639
    157 C19        68.8418   61.2776   45.6251 W1         2 LUT     -0.333362
    158 C20        72.2021   62.6500   41.2364 W2         2 LUT     -0.323439
    159 C21        86.7895   65.6958   35.5537 Z1         2 LUT      0.406104
    160 C22        87.2708   64.8349   34.3678 Z2         2 LUT     -0.404965
    161 C23        87.0185   65.3333   32.9797 Z3         2 LUT      0.391255
    162 O23        87.0200   64.2102   32.1379 S1         2 LUT     -0.528210
    163 C24        85.7827   66.2168   32.8683 W6         2 LUT     -0.258361
    164 C25        84.9049   66.4490   33.8495 Z5         2 LUT      0.133546
    165 C26        85.2962   65.9448   35.2631 W8         2 LUT     -0.147008
    166 C27        84.5181   66.5984   36.3535 Z7         2 LUT      0.023843
    167 C28        83.2644   66.1887   36.7400 Z8         2 LUT     -0.216987
    168 C29        82.4884   66.6761   37.8645 Z9         2 LUT      0.206524
    169 C30        81.2990   65.9884   38.1626 Y1         2 LUT     -0.215556
    170 C31        80.4788   66.2873   39.3145 Y2         2 LUT      0.025142
    171 C32        79.2769   65.6148   39.5093 Y3         2 LUT     -0.212209
    172 C33        78.3366   65.5841   40.5718 Y4         2 LUT      0.240937
    173 C34        77.2728   64.7583   40.3954 Y5         2 LUT     -0.218862
    174 C35        76.0627   64.7728   41.1436 Y6         2 LUT     -0.023547
    175 C36        87.6060   66.9918   35.5197 Y7         2 LUT     -0.393485
    176 C37        87.0874   64.8491   36.8279 Y7         2 LUT     -0.393485
    177 C38        83.5364   67.1136   33.5968 Y9         2 LUT     -0.387526
    178 C39        83.0332   67.9155   38.5135 W1         2 LUT     -0.322618
    179 C40        78.5547   66.4294   41.7840 W2         2 LUT     -0.358472
    180 H403       78.3650   67.4642   41.5302 R7         2 LUT      0.097720
    181 H402       77.9289   66.1205   42.6243 R7         2 LUT      0.097720
    182 H401       79.5931   66.3933   42.2425 R7         2 LUT      0.097720
    183 H393       82.2233   68.4103   39.1069 R4         2 LUT      0.082505
    184 H392       83.8692   67.6846   39.1282 R4         2 LUT      0.082505
    185 H391       83.4317   68.6012   37.8091 R4         2 LUT      0.082505
    186 H383       83.4059   68.1276   34.0140 R1         2 LUT      0.104030
    187 H382       83.3856   67.1450   32.4615 R1         2 LUT      0.104030
    188 H381       82.7473   66.4982   33.9349 R1         2 LUT      0.104030
    189 H373       86.7650   65.3091   37.7798 T4         2 LUT      0.089537
    190 H372       86.6696   63.8196   36.8613 T4         2 LUT      0.089537
    191 H371       88.1613   64.6931   36.8295 T4         2 LUT      0.089537
    192 H363       87.5108   67.5660   34.5912 T4         2 LUT      0.089537
    193 H362       87.4135   67.6767   36.3250 T4         2 LUT      0.089537
    194 H361       88.6842   66.8569   35.6276 T4         2 LUT      0.089537
    195 H222       88.3250   64.6827   34.4524 U2         2 LUT      0.127376
    196 H221       86.7034   63.9914   34.3591 U2         2 LUT      0.127376
    197 H203       71.2001   63.0592   41.0053 R7         2 LUT      0.087068
    198 H202       72.7378   62.7167   40.2886 R7         2 LUT      0.087068
    199 H201       72.0366   61.5954   41.3582 R7         2 LUT      0.087068
    200 H193       68.7780   60.5495   46.3926 R4         2 LUT      0.089716
    201 H192       67.8305   61.4220   45.1956 R4         2 LUT      0.089716
    202 H191       69.3918   60.8256   44.7253 R4         2 LUT      0.089716
    203 H183       64.7704   64.6537   47.7789 R1         2 LUT      0.094572
    204 H182       66.3771   65.3248   47.9259 R1         2 LUT      0.094572
    205 H181       66.2346   63.8536   47.1354 R1         2 LUT      0.094572
    206 H173       69.4831   61.2550   50.2542 T4         2 LUT      0.093752
    207 H172       70.0417   62.7693   50.5224 T4         2 LUT      0.093752
    208 H171       69.4241   61.8517   51.9898 T4         2 LUT      0.093752
    209 H163       66.9422   60.5339   50.7272 T4         2 LUT      0.093752
    210 H162       67.2263   61.1400   52.4294 T4         2 LUT      0.093752
    211 H161       65.8795   61.5792   51.5285 T4         2 LUT      0.093752
    212 HO3        65.4959   66.2123   52.1327 Q1         2 LUT      0.300121
    213 H8         68.9066   64.2571   47.3306 U7         2 LUT      0.080784
    214 H7         68.0164   61.4579   48.1156 U6         2 LUT      0.042190
    215 H42        64.7824   63.2560   50.6612 U5         2 LUT      0.145166
    216 H41        64.5893   64.8755   50.1020 U5         2 LUT      0.145166
    217 H35        76.0718   65.4863   41.9465 T3         2 LUT      0.077919
    218 H34        77.1881   64.1186   39.5249 T2         2 LUT      0.073626
    219 H32        79.0675   64.9820   38.6348 T1         2 LUT      0.092510
    220 H31        80.7738   66.9448   40.0765 U9         2 LUT      0.070048
    221 H30        81.0778   65.0881   37.6655 U8         2 LUT      0.085442
    222 H3         65.6191   63.9751   52.4536 U3         2 LUT     -0.031596
    223 H28        82.7963   65.3967   36.1594 U7         2 LUT      0.084728
    224 H27        85.0268   67.3059   36.9161 U6         2 LUT      0.087291
    225 H26        84.8702   64.9047   35.0368 Q6         2 LUT      0.075325
    226 H24        85.4909   66.6637   31.8998 Q5         2 LUT      0.094482
    227 H23        87.8729   66.0068   32.7366 U3         2 LUT     -0.024869
    228 H22        67.7680   63.6952   52.6738 U2         2 LUT      0.127376
    229 H21        68.3299   64.6581   51.7118 U2         2 LUT      0.127376
    230 H15        75.0886   63.0037   40.3889 T3         2 LUT      0.093200
    231 H14        74.4174   64.4528   43.0975 T2         2 LUT      0.068865
    232 H12        72.6175   64.2790   44.3862 T1         2 LUT      0.095507
    233 H11        70.6249   62.2851   43.5231 U9         2 LUT      0.068930
    234 H10        70.8897   64.0715   45.9815 U8         2 LUT      0.083911
    235 H1         87.3097   64.3715   31.1919 Q1         2 LUT      0.297311
@<TRIPOS>BOND
    1     6     1 1
    2     7     2 1
    3     8     3 1
    4     9     4 1
    5    11     4 1
    6    12     6 1
    7    13     9 1
    8    16     9 1
    9    25     5 1
   10    25    16 1
   11    26    10 1
   12    26    17 1
   13    27    18 1
   14    28    14 1
   15    28    19 1
   16    29    12 1
   17    30    13 1
   18    31    24 1
   19    32     1 1
   20    32    25 1
   21    33    21 1
   22    33    26 1
   23    34    22 1
   24    34    27 1
   25    35    23 1
   26    35    28 1
   27    36    12 1
   28    36    24 1
   29    37    13 1
   30    37    15 1
   31    38    31 1
   32    39    20 1
   33    39    32 1
   34    40     2 1
   35    40    33 1
   36    41     3 1
   37    41    34 1
   38    42     4 1
   39    42    35 1
   40    43    38 1
   41    44     5 1
   42    44    17 1
   43    44    39 1
   44    45    10 1
   45    45    18 1
   46    45    40 1
   47    46    19 1
   48    46    41 1
   49    47    14 1
   50    47    16 1
   51    47    42 1
   52    48    38 1
   53    49    48 1
   54    50    49 1
   55    51    50 1
   56    52    51 1
   57    53    51 1
   58    54    53 1
   59    55    54 1
   60    56    55 1
   61    57    56 1
   62    58    56 1
   63    59    58 1
   64    60    59 1
   65    61    60 1
   66    62    61 1
   67    63    61 1
   68    64    27 1
   69    64    46 1
   70    65     5 1
   71    65    10 1
   72    65    64 1
   73    65    14 1
   74    66    23 1
   75    67    23 1
   76    68    23 1
   77    69    22 1
   78    70    22 1
   79    71    22 1
   80    72    21 1
   81    73    21 1
   82    74    21 1
   83    75    20 1
   84    76    20 1
   85    77    20 1
   86    78    15 1
   87    79    15 1
   88    80    15 1
   89    81     8 1
   90    82     8 1
   91    83     8 1
   92    84     7 1
   93    85     7 1
   94    86     6 1
   95    87     6 1
   96    88     3 1
   97    89     3 1
   98    90     1 1
   99    91     1 1
  100    92    63 1
  101    93    63 1
  102    94    63 1
  103    95    62 1
  104    96    62 1
  105    97    62 1
  106    98    60 1
  107    99    60 1
  108   100    59 1
  109   101    59 1
  110   102    58 1
  111   103    58 1
  112   104    57 1
  113   105    57 1
  114   106    57 1
  115   107    55 1
  116   108    55 1
  117   109    54 1
  118   110    54 1
  119   111    53 1
  120   112    53 1
  121   113    19 1
  122   114    18 1
  123   115    17 1
  124   116     9 1
  125   117     2 1
  126   118    52 1
  127   119    52 1
  128   120    52 1
  129   121    51 1
  130   122    50 1
  131   123    50 1
  132   124    49 1
  133   125    49 1
  134   126    48 1
  135   127    48 1
  136   128    43 1
  137   129    43 1
  138   130    43 1
  139   131    39 1
  140   132    32 1
  141   133    31 1
  142   134    61 1
  143   135    56 1
  144   136    24 1
  145   137    24 1
  146   139   138 1
  147   140   139 1
  148   141   140 1
  149   142   140 1
  150   143   142 1
  151   144   138 1
  152   144   143 1
  153   145   144 1
  154   146   145 1
  155   147   146 1
  156   148   147 1
  157   149   148 1
  158   150   149 1
  159   151   150 1
  160   152   151 1
  161   153   152 1
  162   154   138 1
  163   155   138 1
  164   156   143 1
  165   157   147 1
  166   158   151 1
  167   160   159 1
  168   161   160 1
  169   162   161 1
  170   163   161 1
  171   164   163 1
  172   165   159 1
  173   165   164 1
  174   166   165 1
  175   167   166 1
  176   168   167 1
  177   169   168 1
  178   170   169 1
  179   171   170 1
  180   172   171 1
  181   173   172 1
  182   174   153 1
  183   174   173 1
  184   175   159 1
  185   176   159 1
  186   177   164 1
  187   178   168 1
  188   179   172 1
  189   180   179 1
  190   181   179 1
  191   182   179 1
  192   183   178 1
  193   184   178 1
  194   185   178 1
  195   186   177 1
  196   187   177 1
  197   188   177 1
  198   189   176 1
  199   190   176 1
  200   191   176 1
  201   192   175 1
  202   193   175 1
  203   194   175 1
  204   195   160 1
  205   196   160 1
  206   197   158 1
  207   198   158 1
  208   199   158 1
  209   200   157 1
  210   201   157 1
  211   202   157 1
  212   203   156 1
  213   204   156 1
  214   205   156 1
  215   206   155 1
  216   207   155 1
  217   208   155 1
  218   209   154 1
  219   210   154 1
  220   211   154 1
  221   212   141 1
  222   213   146 1
  223   214   145 1
  224   215   142 1
  225   216   142 1
  226   217   174 1
  227   218   173 1
  228   219   171 1
  229   220   170 1
  230   221   169 1
  231   222   140 1
  232   223   167 1
  233   224   166 1
  234   225   165 1
  235   226   163 1
  236   227   161 1
  237   228   139 1
  238   229   139 1
  239   230   153 1
  240   231   152 1
  241   232   150 1
  242   233   149 1
  243   234   148 1
  244   235   162 1
  245   65    153 1
  246   65    174 1
@<TRIPOS>SUBSTRUCTURE
      1 CLA               1 ****               0 ****  **** 
      2 LUT             138 ****               0 ****  **** 
