@<TRIPOS>MOLECULE
Cpptraj generated mol2 file.
  235   246     2     0     0
SMALL
USER_CHARGES


@<TRIPOS>ATOM
      1 CAA        79.7337   58.6690   33.9154 a2         1 CLA     -0.055900
      2 CAB        79.6464   62.4999   42.8931 c8         1 CLA     -0.148500
      3 CAC        72.7773   58.4246   42.2087 a2         1 CLA     -0.012600
      4 CAD        75.6396   56.0948   35.1228 ck         1 CLA      0.398800
      5 NA         78.8120   59.1110   37.4227 ns         1 CLA     -0.225500
      6 CBA        80.8926   58.5313   32.9538 a2         1 CLA     -0.135000
      7 CBB        80.7759   62.6098   43.5296 c0         1 CLA     -0.395200
      8 CBC        73.0976   56.9787   42.4509 a3         1 CLA     -0.037700
      9 CBD        77.1390   56.5231   34.8575 a1         1 CLA     -0.053900
     10 NB         78.5435   60.6566   39.9696 nm         1 CLA     -0.295700
     11 OBD        75.0012   55.2751   34.4784 o2         1 CLA     -0.494600
     12 CGA        81.4213   57.1830   32.6018 c4         1 CLA      0.827000
     13 CGD        78.1361   55.4223   34.7408 c4         1 CLA      0.655300
     14 ND         75.9328   58.3230   37.8140 nm         1 CLA     -0.291600
     15 CED        78.9734   53.4240   35.5871 a3         1 CLA      0.005400
     16 CHA        77.4584   57.5560   35.9684 cs         1 CLA     -0.123800
     17 CHB        80.5841   60.4606   38.4888 aa         1 CLA     -0.291900
     18 CHC        77.1187   61.0503   41.9194 aa         1 CLA     -0.090400
     19 CHD        74.1430   58.0560   39.4923 aa         1 CLA     -0.052000
     20 CMA        82.2643   58.5270   36.5752 a3         1 CLA     -0.230700
     21 CMB        81.7778   62.4630   40.3204 a3         1 CLA     -0.180800
     22 CMC        74.7031   60.2402   43.9239 a3         1 CLA     -0.134000
     23 CMD        72.6827   56.4099   37.0760 a3         1 CLA     -0.141100
     24 C1         82.9999   55.5328   33.2684 a2         1 CLA      0.023000
     25 C1A        78.6662   58.3301   36.2384 ac         1 CLA     -0.015100
     26 C1B        79.8795   60.9936   39.5701 cr         1 CLA      0.054700
     27 C1C        76.0216   60.2382   41.6768 cn         1 CLA     -0.005600
     28 C1D        74.6575   57.7600   38.2109 ap         1 CLA     -0.047300
     29 O1A        81.0116   56.4458   31.7262 o2         1 CLA     -0.610800
     30 O1D        78.8591   55.3302   33.7472 o2         1 CLA     -0.558200
     31 C2         83.7779   55.2279   34.4911 c8         1 CLA     -0.325100
     32 C2A        79.9684   58.2727   35.3864 a1         1 CLA      0.098600
     33 C2B        80.3836   61.9190   40.4965 cb         1 CLA      0.088500
     34 C2C        74.8840   59.9666   42.4759 cb         1 CLA      0.053700
     35 C2D        74.0807   57.0454   37.1088 cb         1 CLA      0.058900
     36 O2A        82.3805   56.8650   33.4529 o1         1 CLA     -0.437200
     37 O2D        78.0666   54.5866   35.7612 o1         1 CLA     -0.357600
     38 C3         84.8541   54.4114   34.5762 c5         1 CLA      0.031200
     39 C3A        80.9353   59.2486   36.2032 a1         1 CLA      0.166800
     40 C3B        79.5266   61.8181   41.5944 cb         1 CLA      0.035000
     41 C3C        74.0938   59.0808   41.7503 cb         1 CLA     -0.089900
     42 C3D        75.1983   56.8537   36.2974 cb         1 CLA     -0.035900
     43 C4         84.7013   52.8822   34.8323 a3         1 CLA     -0.053300
     44 C4A        80.1051   59.5736   37.4971 ac         1 CLA      0.001800
     45 C4B        78.3308   61.1694   41.1562 cn         1 CLA     -0.020900
     46 C4C        74.7105   58.8719   40.4842 cr         1 CLA     -0.044400
     47 C4D        76.3025   57.6261   36.7211 c6         1 CLA     -0.046000
     48 C5         86.2545   55.0049   34.3978 a2         1 CLA     -0.070400
     49 C6         86.5970   56.3016   35.2419 a2         1 CLA      0.043900
     50 C7         86.3602   56.1751   36.6976 a2         1 CLA     -0.150000
     51 C8         87.4376   55.5477   37.5569 a1         1 CLA      0.064200
     52 C9         87.9842   54.1211   37.1873 a3         1 CLA     -0.259300
     53 C10        87.3171   55.5908   39.0994 a2         1 CLA     -0.071900
     54 C11        87.3590   57.0199   39.6663 a2         1 CLA      0.014500
     55 C12        87.3437   57.0299   41.1468 a2         1 CLA     -0.112100
     56 C13        86.9908   58.4556   41.7400 a1         1 CLA      0.089200
     57 C14        87.9377   59.5561   41.2466 a3         1 CLA     -0.239100
     58 C15        86.8742   58.4031   43.3323 a2         1 CLA     -0.102200
     59 C16        85.9644   57.2820   43.9049 a2         1 CLA      0.023900
     60 C17        86.0044   57.2339   45.4604 a2         1 CLA     -0.105700
     61 C18        85.6017   58.5124   46.2203 a1         1 CLA      0.206800
     62 C19        84.2931   59.1091   45.9010 a3         1 CLA     -0.280100
     63 C20        85.7148   58.3380   47.7147 a3         1 CLA     -0.280100
     64 NC         75.8664   59.6571   40.3824 nx         1 CLA     -0.309200
     65 MG         77.2531   59.6386   38.7907 mg         1 CLA      0.895000
     66 HMD3       72.4976   55.6275   37.8347 dc         1 CLA      0.064300
     67 HMD2       72.0655   57.3103   37.0197 dc         1 CLA      0.064300
     68 HMD1       72.3606   55.9712   36.1242 dc         1 CLA      0.064300
     69 HMC3       75.4019   61.0708   44.2274 dc         1 CLA      0.052100
     70 HMC2       73.7323   60.5086   44.0815 dc         1 CLA      0.052100
     71 HMC1       74.9491   59.3832   44.5516 dc         1 CLA      0.052100
     72 HMB3       82.4817   61.6741   40.6265 dc         1 CLA      0.063600
     73 HMB2       81.8177   62.7516   39.2577 dc         1 CLA      0.063600
     74 HMB1       81.9796   63.4012   40.9126 dc         1 CLA      0.063600
     75 HMA3       81.9568   57.5271   37.0140 dc         1 CLA      0.058300
     76 HMA2       82.8932   58.4382   35.6794 dc         1 CLA      0.058300
     77 HMA1       82.8660   59.1252   37.2314 dc         1 CLA      0.058300
     78 HED3       79.9979   53.7547   35.7417 dc         1 CLA      0.079300
     79 HED2       78.6839   52.6476   36.3507 dc         1 CLA      0.079300
     80 HED1       78.8415   52.9507   34.6129 dc         1 CLA      0.079300
     81 HBC3       73.6378   56.5774   41.6051 dc         1 CLA      0.016300
     82 HBC2       73.7250   57.0188   43.3780 dc         1 CLA      0.016300
     83 HBC1       72.1936   56.4274   42.6041 dc         1 CLA      0.016300
     84 HBB2       80.9319   63.0793   44.5094 da         1 CLA      0.183000
     85 HBB1       81.6651   62.2026   43.0858 da         1 CLA      0.183000
     86 HBA2       80.6203   59.0448   31.9909 dc         1 CLA      0.029400
     87 HBA1       81.7192   59.0636   33.3084 dc         1 CLA      0.029400
     88 HAC2       72.3556   58.9651   43.0531 dc         1 CLA      0.029300
     89 HAC1       72.0444   58.4805   41.4366 dc         1 CLA      0.029300
     90 HAA2       78.9348   58.1110   33.5649 dc         1 CLA      0.028700
     91 HAA1       79.4144   59.6795   33.7851 dc         1 CLA      0.028700
     92 H203       86.7244   58.0073   47.8557 dc         1 CLA      0.065600
     93 H202       85.5649   59.1425   48.4361 dc         1 CLA      0.065600
     94 H201       85.0635   57.5425   48.0748 dc         1 CLA      0.065600
     95 H193       84.1361   59.3354   44.8312 dc         1 CLA      0.065600
     96 H192       83.5111   58.4982   46.3226 dc         1 CLA      0.065600
     97 H191       84.4030   60.1373   46.2584 dc         1 CLA      0.065600
     98 H172       85.1795   56.5974   45.6639 dc         1 CLA      0.027600
     99 H171       86.9043   56.8565   45.8297 dc         1 CLA      0.027600
    100 H162       85.0087   57.4902   43.5329 dc         1 CLA      0.002900
    101 H161       86.2174   56.2944   43.4914 dc         1 CLA      0.002900
    102 H152       87.8983   58.1415   43.7283 dc         1 CLA      0.029100
    103 H151       86.5620   59.3778   43.6192 dc         1 CLA      0.029100
    104 H143       88.9542   59.4392   41.6831 dc         1 CLA      0.063600
    105 H142       88.1329   59.5104   40.1768 dc         1 CLA      0.063600
    106 H141       87.6432   60.5589   41.4833 dc         1 CLA      0.063600
    107 H122       86.5629   56.3469   41.4634 dc         1 CLA      0.032500
    108 H121       88.3233   56.6702   41.4722 dc         1 CLA      0.032500
    109 H112       88.2735   57.5472   39.3141 dc         1 CLA      0.006600
    110 H111       86.4470   57.5287   39.2795 dc         1 CLA      0.006600
    111 H102       86.3589   55.1539   39.3603 dc         1 CLA      0.024100
    112 H101       88.0883   55.0398   39.7107 dc         1 CLA      0.024100
    113 HHD        73.1223   57.8391   39.6222 da         1 CLA      0.174300
    114 HHC        77.1768   61.4722   42.9514 da         1 CLA      0.136800
    115 HHB        81.4803   60.9845   38.2681 da         1 CLA      0.138300
    116 HBD        77.0781   56.9606   33.8717 dc         1 CLA      0.107700
    117 HAB        78.8456   62.9893   43.3430 da         1 CLA      0.155200
    118 H93        88.7037   53.8406   37.9451 dc         1 CLA      0.069500
    119 H92        87.2289   53.3690   37.1976 dc         1 CLA      0.069500
    120 H91        88.6179   54.0259   36.3093 dc         1 CLA      0.069500
    121 H8         88.3141   56.1650   37.3033 dc         1 CLA      0.029300
    122 H72        86.2275   57.1866   37.0860 dc         1 CLA      0.044400
    123 H71        85.4860   55.6277   36.9284 dc         1 CLA      0.044400
    124 H62        87.6463   56.5972   35.1318 dc         1 CLA      0.015600
    125 H61        86.0188   57.1743   34.9126 dc         1 CLA      0.015600
    126 H52        86.9363   54.3303   34.7598 dc         1 CLA      0.033200
    127 H51        86.5758   55.2665   33.4046 dc         1 CLA      0.033200
    128 H43        85.1797   52.3588   33.9596 dc         1 CLA      0.037000
    129 H42        85.0887   52.6955   35.7796 dc         1 CLA      0.037000
    130 H41        83.6427   52.6526   34.8646 dc         1 CLA      0.037000
    131 H3A        81.0487   60.2184   35.7221 dc         1 CLA      0.041100
    132 H2A        80.3732   57.2762   35.4060 dc         1 CLA      0.083100
    133 H2         83.5207   55.8121   35.3384 da         1 CLA      0.180900
    134 H18        86.4363   59.1558   46.0386 dc         1 CLA     -0.003900
    135 H13        86.0734   58.7160   41.2457 dc         1 CLA      0.019700
    136 H12        82.2590   54.7582   33.1363 dc         1 CLA      0.120400
    137 H11        83.6960   55.5121   32.4237 dc         1 CLA      0.120400
    138 C1         68.9695   61.7738   49.6898 Z1         2 LUT      0.509236
    139 C2         67.5866   61.5047   50.2186 Z2         2 LUT     -0.434695
    140 C3         66.7577   62.7685   50.5333 Z3         2 LUT      0.437453
    141 O3         66.6766   63.0580   51.9357 S1         2 LUT     -0.547129
    142 C4         67.0723   64.0077   49.6758 Z4         2 LUT     -0.468603
    143 C5         67.9099   63.7297   48.4738 Z5         2 LUT      0.279246
    144 C6         68.7670   62.6652   48.4634 Z6         2 LUT     -0.305473
    145 C7         69.3951   62.3357   47.1347 Z7         2 LUT      0.069402
    146 C8         70.3013   63.0447   46.4600 Z8         2 LUT     -0.191631
    147 C9         70.8940   62.7112   45.1073 Z9         2 LUT      0.196698
    148 C10        71.9974   63.3529   44.6910 Y1         2 LUT     -0.208611
    149 C11        72.7481   63.1726   43.4276 Y2         2 LUT      0.030784
    150 C12        73.8424   63.9261   43.1187 Y3         2 LUT     -0.220316
    151 C13        74.7198   63.8393   41.9143 Y4         2 LUT      0.215937
    152 C14        75.9513   64.4160   41.8320 Y5         2 LUT     -0.185793
    153 C15        77.0475   64.3844   40.8405 Y6         2 LUT     -0.057835
    154 C16        69.5939   60.3829   49.4535 Y7         2 LUT     -0.405615
    155 C17        69.7029   62.4575   50.8026 Y7         2 LUT     -0.405615
    156 C18        67.6842   64.7319   47.3368 Y9         2 LUT     -0.369639
    157 C19        70.2343   61.6399   44.3212 W1         2 LUT     -0.333362
    158 C20        74.3209   62.9823   40.7575 W2         2 LUT     -0.323439
    159 C21        88.6190   65.7300   34.8602 Z1         2 LUT      0.406104
    160 C22        89.2339   65.4292   33.4983 Z2         2 LUT     -0.404965
    161 C23        89.2302   66.5386   32.4932 Z3         2 LUT      0.391255
    162 O23        89.8647   65.9834   31.3305 S1         2 LUT     -0.528210
    163 C24        87.8009   67.1019   32.3399 W6         2 LUT     -0.258361
    164 C25        86.9515   67.1252   33.3897 Z5         2 LUT      0.133546
    165 C26        87.1760   66.2559   34.6867 W8         2 LUT     -0.147008
    166 C27        86.5774   66.7306   36.0073 Z7         2 LUT      0.023843
    167 C28        85.2840   66.6187   36.3325 Z8         2 LUT     -0.216987
    168 C29        84.6060   66.9906   37.5763 Z9         2 LUT      0.206524
    169 C30        83.4723   66.3663   37.9627 Y1         2 LUT     -0.215556
    170 C31        82.6363   66.4719   39.1362 Y2         2 LUT      0.025142
    171 C32        81.3813   65.8870   39.2433 Y3         2 LUT     -0.212209
    172 C33        80.4288   66.0438   40.3457 Y4         2 LUT      0.240937
    173 C34        79.3001   65.3351   40.2323 Y5         2 LUT     -0.218862
    174 C35        78.1280   65.2042   41.0574 Y6         2 LUT     -0.023547
    175 C36        89.6309   66.7073   35.5006 Y7         2 LUT     -0.393485
    176 C37        88.8122   64.3936   35.6504 Y7         2 LUT     -0.393485
    177 C38        85.4814   67.5224   33.1326 Y9         2 LUT     -0.387526
    178 C39        85.3084   67.9116   38.5147 W1         2 LUT     -0.322618
    179 C40        80.7610   67.0820   41.3749 W2         2 LUT     -0.358472
    180 H403       80.5043   68.0896   41.1573 R7         2 LUT      0.097720
    181 H402       80.2723   66.8817   42.4095 R7         2 LUT      0.097720
    182 H401       81.8310   67.1308   41.6017 R7         2 LUT      0.097720
    183 H393       85.9709   68.6392   37.9845 R4         2 LUT      0.082505
    184 H392       84.6059   68.4392   39.1833 R4         2 LUT      0.082505
    185 H391       86.0566   67.3386   39.1772 R4         2 LUT      0.082505
    186 H383       85.1043   68.3446   33.7852 R1         2 LUT      0.104030
    187 H382       85.2284   67.8902   32.1128 R1         2 LUT      0.104030
    188 H381       84.7616   66.7394   33.4021 R1         2 LUT      0.104030
    189 H373       88.1508   63.6269   35.1144 T4         2 LUT      0.089537
    190 H372       89.8955   64.0866   35.7709 T4         2 LUT      0.089537
    191 H371       88.4111   64.3645   36.6459 T4         2 LUT      0.089537
    192 H363       89.4288   66.7688   36.6696 T4         2 LUT      0.089537
    193 H362       90.6766   66.5798   35.5510 T4         2 LUT      0.089537
    194 H361       89.5222   67.7527   35.1722 T4         2 LUT      0.089537
    195 H222       90.2058   65.0314   33.4883 U2         2 LUT      0.127376
    196 H221       88.6740   64.5372   32.9844 U2         2 LUT      0.127376
    197 H203       75.1846   62.4587   40.2525 R7         2 LUT      0.087068
    198 H202       73.5917   62.2853   41.0482 R7         2 LUT      0.087068
    199 H201       73.7980   63.6302   39.9808 R7         2 LUT      0.087068
    200 H193       69.1390   61.7983   44.4549 R4         2 LUT      0.089716
    201 H192       70.4102   61.7234   43.2718 R4         2 LUT      0.089716
    202 H191       70.4869   60.5808   44.5884 R4         2 LUT      0.089716
    203 H183       67.0168   65.5574   47.6223 R1         2 LUT      0.094572
    204 H182       68.5923   65.1763   47.0764 R1         2 LUT      0.094572
    205 H181       67.3229   64.1210   46.4608 R1         2 LUT      0.094572
    206 H173       69.1878   63.3519   51.0944 T4         2 LUT      0.093752
    207 H172       69.8702   61.8243   51.7018 T4         2 LUT      0.093752
    208 H171       70.6652   62.8122   50.5634 T4         2 LUT      0.093752
    209 H163       70.5098   60.3681   48.8917 T4         2 LUT      0.093752
    210 H162       69.8748   59.8889   50.3881 T4         2 LUT      0.093752
    211 H161       68.8858   59.6204   49.0344 T4         2 LUT      0.093752
    212 HO3        66.2618   62.3933   52.4349 Q1         2 LUT      0.300121
    213 H8         70.6449   63.8624   46.9922 U7         2 LUT      0.080784
    214 H7         68.9462   61.4050   46.7178 U6         2 LUT      0.042190
    215 H42        66.0705   64.4125   49.4408 U5         2 LUT      0.145166
    216 H41        67.4081   64.8418   50.2583 U5         2 LUT      0.145166
    217 H35        78.1028   65.8741   41.9964 T3         2 LUT      0.077919
    218 H34        79.2038   64.6528   39.4215 T2         2 LUT      0.073626
    219 H32        81.0097   65.2703   38.4812 T1         2 LUT      0.092510
    220 H31        82.9844   67.1634   39.9537 U9         2 LUT      0.070048
    221 H30        83.1042   65.6715   37.1866 U8         2 LUT      0.085442
    222 H3         65.7081   62.5881   50.1518 U3         2 LUT     -0.031596
    223 H28        84.4852   66.2163   35.6562 U7         2 LUT      0.084728
    224 H27        87.1927   67.1169   36.7923 U6         2 LUT      0.087291
    225 H26        86.7779   65.3069   34.3300 Q6         2 LUT      0.075325
    226 H24        87.5663   67.6353   31.4240 Q5         2 LUT      0.094482
    227 H23        89.9053   67.2806   32.9618 U3         2 LUT     -0.024869
    228 H22        66.9905   60.8546   49.4785 U2         2 LUT      0.127376
    229 H21        67.7015   60.9543   51.1074 U2         2 LUT      0.127376
    230 H15        76.9946   63.8014   39.8837 T3         2 LUT      0.093200
    231 H14        76.2281   64.9958   42.7694 T2         2 LUT      0.068865
    232 H12        74.1996   64.4840   43.9604 T1         2 LUT      0.095507
    233 H11        72.3662   62.5095   42.6837 U9         2 LUT      0.068930
    234 H10        72.5127   64.0924   45.2988 U8         2 LUT      0.083911
    235 H1         89.2143   65.5699   30.7266 Q1         2 LUT      0.297311
@<TRIPOS>BOND
    1     6     1 1
    2     7     2 1
    3     8     3 1
    4     9     4 1
    5    11     4 1
    6    12     6 1
    7    13     9 1
    8    16     9 1
    9    25     5 1
   10    25    16 1
   11    26    10 1
   12    26    17 1
   13    27    18 1
   14    28    14 1
   15    28    19 1
   16    29    12 1
   17    30    13 1
   18    31    24 1
   19    32     1 1
   20    32    25 1
   21    33    21 1
   22    33    26 1
   23    34    22 1
   24    34    27 1
   25    35    23 1
   26    35    28 1
   27    36    12 1
   28    36    24 1
   29    37    13 1
   30    37    15 1
   31    38    31 1
   32    39    20 1
   33    39    32 1
   34    40     2 1
   35    40    33 1
   36    41     3 1
   37    41    34 1
   38    42     4 1
   39    42    35 1
   40    43    38 1
   41    44     5 1
   42    44    17 1
   43    44    39 1
   44    45    10 1
   45    45    18 1
   46    45    40 1
   47    46    19 1
   48    46    41 1
   49    47    14 1
   50    47    16 1
   51    47    42 1
   52    48    38 1
   53    49    48 1
   54    50    49 1
   55    51    50 1
   56    52    51 1
   57    53    51 1
   58    54    53 1
   59    55    54 1
   60    56    55 1
   61    57    56 1
   62    58    56 1
   63    59    58 1
   64    60    59 1
   65    61    60 1
   66    62    61 1
   67    63    61 1
   68    64    27 1
   69    64    46 1
   70    65     5 1
   71    65    10 1
   72    65    64 1
   73    65    14 1
   74    66    23 1
   75    67    23 1
   76    68    23 1
   77    69    22 1
   78    70    22 1
   79    71    22 1
   80    72    21 1
   81    73    21 1
   82    74    21 1
   83    75    20 1
   84    76    20 1
   85    77    20 1
   86    78    15 1
   87    79    15 1
   88    80    15 1
   89    81     8 1
   90    82     8 1
   91    83     8 1
   92    84     7 1
   93    85     7 1
   94    86     6 1
   95    87     6 1
   96    88     3 1
   97    89     3 1
   98    90     1 1
   99    91     1 1
  100    92    63 1
  101    93    63 1
  102    94    63 1
  103    95    62 1
  104    96    62 1
  105    97    62 1
  106    98    60 1
  107    99    60 1
  108   100    59 1
  109   101    59 1
  110   102    58 1
  111   103    58 1
  112   104    57 1
  113   105    57 1
  114   106    57 1
  115   107    55 1
  116   108    55 1
  117   109    54 1
  118   110    54 1
  119   111    53 1
  120   112    53 1
  121   113    19 1
  122   114    18 1
  123   115    17 1
  124   116     9 1
  125   117     2 1
  126   118    52 1
  127   119    52 1
  128   120    52 1
  129   121    51 1
  130   122    50 1
  131   123    50 1
  132   124    49 1
  133   125    49 1
  134   126    48 1
  135   127    48 1
  136   128    43 1
  137   129    43 1
  138   130    43 1
  139   131    39 1
  140   132    32 1
  141   133    31 1
  142   134    61 1
  143   135    56 1
  144   136    24 1
  145   137    24 1
  146   139   138 1
  147   140   139 1
  148   141   140 1
  149   142   140 1
  150   143   142 1
  151   144   138 1
  152   144   143 1
  153   145   144 1
  154   146   145 1
  155   147   146 1
  156   148   147 1
  157   149   148 1
  158   150   149 1
  159   151   150 1
  160   152   151 1
  161   153   152 1
  162   154   138 1
  163   155   138 1
  164   156   143 1
  165   157   147 1
  166   158   151 1
  167   160   159 1
  168   161   160 1
  169   162   161 1
  170   163   161 1
  171   164   163 1
  172   165   159 1
  173   165   164 1
  174   166   165 1
  175   167   166 1
  176   168   167 1
  177   169   168 1
  178   170   169 1
  179   171   170 1
  180   172   171 1
  181   173   172 1
  182   174   153 1
  183   174   173 1
  184   175   159 1
  185   176   159 1
  186   177   164 1
  187   178   168 1
  188   179   172 1
  189   180   179 1
  190   181   179 1
  191   182   179 1
  192   183   178 1
  193   184   178 1
  194   185   178 1
  195   186   177 1
  196   187   177 1
  197   188   177 1
  198   189   176 1
  199   190   176 1
  200   191   176 1
  201   192   175 1
  202   193   175 1
  203   194   175 1
  204   195   160 1
  205   196   160 1
  206   197   158 1
  207   198   158 1
  208   199   158 1
  209   200   157 1
  210   201   157 1
  211   202   157 1
  212   203   156 1
  213   204   156 1
  214   205   156 1
  215   206   155 1
  216   207   155 1
  217   208   155 1
  218   209   154 1
  219   210   154 1
  220   211   154 1
  221   212   141 1
  222   213   146 1
  223   214   145 1
  224   215   142 1
  225   216   142 1
  226   217   174 1
  227   218   173 1
  228   219   171 1
  229   220   170 1
  230   221   169 1
  231   222   140 1
  232   223   167 1
  233   224   166 1
  234   225   165 1
  235   226   163 1
  236   227   161 1
  237   228   139 1
  238   229   139 1
  239   230   153 1
  240   231   152 1
  241   232   150 1
  242   233   149 1
  243   234   148 1
  244   235   162 1
  245   65    153 1
  246   65    174 1
@<TRIPOS>SUBSTRUCTURE
      1 CLA               1 ****               0 ****  **** 
      2 LUT             138 ****               0 ****  **** 
