@<TRIPOS>MOLECULE
Cpptraj generated mol2 file.
  235   246     2     0     0
SMALL
USER_CHARGES


@<TRIPOS>ATOM
      1 CAA        80.4386   58.0534   34.6158 a2         1 CLA     -0.055900
      2 CAB        80.5070   62.0037   43.5630 c8         1 CLA     -0.148500
      3 CAC        73.2530   58.5353   42.9586 a2         1 CLA     -0.012600
      4 CAD        76.1315   55.5443   35.9952 ck         1 CLA      0.398800
      5 NA         79.4361   58.5151   38.0250 ns         1 CLA     -0.225500
      6 CBA        81.6467   57.6877   33.7317 a2         1 CLA     -0.135000
      7 CBB        81.6572   62.4273   44.1372 c0         1 CLA     -0.395200
      8 CBC        73.3938   57.0249   43.3604 a3         1 CLA     -0.037700
      9 CBD        77.5105   56.0080   35.6268 a1         1 CLA     -0.053900
     10 NB         79.3489   60.0729   40.5859 nm         1 CLA     -0.295700
     11 OBD        75.5596   54.5965   35.4540 o2         1 CLA     -0.494600
     12 CGA        81.7934   56.2175   33.3545 c4         1 CLA      0.827000
     13 CGD        78.4637   54.8823   35.5244 c4         1 CLA      0.655300
     14 ND         76.4403   57.9077   38.5323 nm         1 CLA     -0.291600
     15 CED        78.6736   52.5933   36.3866 a3         1 CLA      0.005400
     16 CHA        77.9124   57.0670   36.6837 cs         1 CLA     -0.123800
     17 CHB        81.2841   59.7036   39.0124 aa         1 CLA     -0.291900
     18 CHC        77.9200   60.6165   42.4627 aa         1 CLA     -0.090400
     19 CHD        74.5793   58.0149   40.1271 aa         1 CLA     -0.052000
     20 CMA        82.7949   57.5858   37.2885 a3         1 CLA     -0.230700
     21 CMB        82.6853   61.6352   41.1016 a3         1 CLA     -0.180800
     22 CMC        75.5574   60.2967   44.5126 a3         1 CLA     -0.134000
     23 CMD        73.4027   55.6885   38.1152 a3         1 CLA     -0.141100
     24 C1         82.6260   54.0212   34.1759 a2         1 CLA      0.023000
     25 C1A        79.1850   57.7110   36.9201 ac         1 CLA     -0.015100
     26 C1B        80.6759   60.2650   40.2218 cr         1 CLA      0.054700
     27 C1C        76.7373   59.9290   42.1994 cn         1 CLA     -0.005600
     28 C1D        75.1230   57.5659   38.8151 ap         1 CLA     -0.047300
     29 O1A        81.5522   55.7645   32.2827 o2         1 CLA     -0.610800
     30 O1D        79.3759   54.7175   34.7512 o2         1 CLA     -0.558200
     31 C2         83.3983   53.6083   35.4382 c8         1 CLA     -0.325100
     32 C2A        80.4202   57.4802   36.1217 a1         1 CLA      0.098600
     33 C2B        81.3308   61.0216   41.2280 cb         1 CLA      0.088500
     34 C2C        75.5887   59.8149   43.1260 cb         1 CLA      0.053700
     35 C2D        74.6544   56.5227   37.9822 cb         1 CLA      0.058900
     36 O2A        82.3302   55.5175   34.3889 o1         1 CLA     -0.437200
     37 O2D        78.3191   53.9868   36.6733 o1         1 CLA     -0.357600
     38 C3         84.5002   52.8537   35.5131 c5         1 CLA      0.031200
     39 C3A        81.5009   58.2962   36.9152 a1         1 CLA      0.166800
     40 C3B        80.3866   61.3468   42.2420 cb         1 CLA      0.035000
     41 C3C        74.5872   59.0779   42.4694 cb         1 CLA     -0.089900
     42 C3D        75.6666   56.3995   37.0843 cb         1 CLA     -0.035900
     43 C4         84.4565   51.2982   35.4254 a3         1 CLA     -0.053300
     44 C4A        80.7245   58.8514   38.0613 ac         1 CLA      0.001800
     45 C4B        79.1294   60.6906   41.7817 cn         1 CLA     -0.020900
     46 C4C        75.1511   58.7589   41.1118 cr         1 CLA     -0.044400
     47 C4D        76.7709   57.2131   37.4413 c6         1 CLA     -0.046000
     48 C5         85.9258   53.4815   35.5566 a2         1 CLA     -0.070400
     49 C6         86.0918   54.4428   36.7001 a2         1 CLA      0.043900
     50 C7         87.5139   54.6837   37.0711 a2         1 CLA     -0.150000
     51 C8         87.7783   55.7855   38.1848 a1         1 CLA      0.064200
     52 C9         87.9494   57.2014   37.5171 a3         1 CLA     -0.259300
     53 C10        88.9069   55.4202   39.1151 a2         1 CLA     -0.071900
     54 C11        89.3229   56.3974   40.2887 a2         1 CLA      0.014500
     55 C12        88.1961   56.7705   41.2523 a2         1 CLA     -0.112100
     56 C13        88.5655   57.7445   42.3374 a1         1 CLA      0.089200
     57 C14        89.6605   57.3324   43.3170 a3         1 CLA     -0.239100
     58 C15        87.3251   58.2056   43.0881 a2         1 CLA     -0.102200
     59 C16        87.3308   59.5382   43.8695 a2         1 CLA      0.023900
     60 C17        86.0056   60.0868   44.3801 a2         1 CLA     -0.105700
     61 C18        85.2346   59.2107   45.3358 a1         1 CLA      0.206800
     62 C19        86.0173   58.9463   46.7028 a3         1 CLA     -0.280100
     63 C20        83.9018   59.8354   45.6785 a3         1 CLA     -0.280100
     64 NC         76.4684   59.3082   41.0026 nx         1 CLA     -0.309200
     65 MG         77.8990   59.0895   39.4154 mg         1 CLA      0.895000
     66 HMD3       73.1566   55.6848   39.2157 dc         1 CLA      0.064300
     67 HMD2       72.5604   56.1180   37.6004 dc         1 CLA      0.064300
     68 HMD1       73.5605   54.7104   37.6192 dc         1 CLA      0.064300
     69 HMC3       76.0841   59.7341   45.1573 dc         1 CLA      0.052100
     70 HMC2       75.7887   61.3348   44.3825 dc         1 CLA      0.052100
     71 HMC1       74.4366   60.3085   44.7924 dc         1 CLA      0.052100
     72 HMB3       83.2098   61.1821   40.2081 dc         1 CLA      0.063600
     73 HMB2       82.6323   62.7128   41.1199 dc         1 CLA      0.063600
     74 HMB1       83.4175   61.4803   41.9437 dc         1 CLA      0.063600
     75 HMA3       83.3375   57.5056   36.3298 dc         1 CLA      0.058300
     76 HMA2       83.3808   58.1933   37.9798 dc         1 CLA      0.058300
     77 HMA1       82.6081   56.5779   37.7682 dc         1 CLA      0.058300
     78 HED3       79.7452   52.6008   36.3232 dc         1 CLA      0.079300
     79 HED2       78.3284   52.0610   37.2571 dc         1 CLA      0.079300
     80 HED1       78.1750   52.3207   35.4108 dc         1 CLA      0.079300
     81 HBC3       73.4552   56.4256   42.4880 dc         1 CLA      0.016300
     82 HBC2       74.1923   56.8574   44.0654 dc         1 CLA      0.016300
     83 HBC1       72.5148   56.8419   43.9378 dc         1 CLA      0.016300
     84 HBB2       81.6234   62.7183   45.2127 da         1 CLA      0.183000
     85 HBB1       82.6649   62.2601   43.7160 da         1 CLA      0.183000
     86 HBA2       81.4734   58.2511   32.8145 dc         1 CLA      0.029400
     87 HBA1       82.4970   58.0909   34.2571 dc         1 CLA      0.029400
     88 HAC2       72.9828   59.1130   43.8410 dc         1 CLA      0.029300
     89 HAC1       72.4829   58.7006   42.1950 dc         1 CLA      0.029300
     90 HAA2       79.5892   57.6603   34.1914 dc         1 CLA      0.028700
     91 HAA1       80.3750   59.1599   34.5283 dc         1 CLA      0.028700
     92 H203       83.2876   60.0057   44.8262 dc         1 CLA      0.065600
     93 H202       83.2939   59.1007   46.2581 dc         1 CLA      0.065600
     94 H201       84.0788   60.6169   46.4217 dc         1 CLA      0.065600
     95 H193       86.9685   58.4535   46.5241 dc         1 CLA      0.065600
     96 H192       86.1654   59.8697   47.2186 dc         1 CLA      0.065600
     97 H191       85.4319   58.2500   47.3188 dc         1 CLA      0.065600
     98 H172       86.2701   61.0932   44.8401 dc         1 CLA      0.027600
     99 H171       85.4970   60.3999   43.4516 dc         1 CLA      0.027600
    100 H162       88.1525   59.4273   44.5834 dc         1 CLA      0.002900
    101 H161       87.6728   60.3308   43.2653 dc         1 CLA      0.002900
    102 H152       86.5282   58.2388   42.3170 dc         1 CLA      0.029100
    103 H151       87.0259   57.4593   43.7767 dc         1 CLA      0.029100
    104 H143       89.8450   58.0127   44.1585 dc         1 CLA      0.063600
    105 H142       89.3468   56.3817   43.7771 dc         1 CLA      0.063600
    106 H141       90.6070   57.1297   42.8138 dc         1 CLA      0.063600
    107 H122       87.3856   57.2232   40.5921 dc         1 CLA      0.032500
    108 H121       87.7928   55.8885   41.7793 dc         1 CLA      0.032500
    109 H112       90.1136   55.9788   40.8540 dc         1 CLA      0.006600
    110 H111       89.6919   57.3844   39.9381 dc         1 CLA      0.006600
    111 H102       88.5476   54.5028   39.6136 dc         1 CLA      0.024100
    112 H101       89.8002   55.2090   38.4898 dc         1 CLA      0.024100
    113 HHD        73.6416   57.4812   40.3729 da         1 CLA      0.174300
    114 HHC        77.8085   61.1500   43.4110 da         1 CLA      0.136800
    115 HHB        82.3401   59.9359   38.7520 da         1 CLA      0.138300
    116 HBD        77.4902   56.4980   34.6723 dc         1 CLA      0.107700
    117 HAB        79.6252   62.1006   44.1377 da         1 CLA      0.155200
    118 H93        88.4197   57.9150   38.1461 dc         1 CLA      0.069500
    119 H92        88.6079   57.0902   36.5912 dc         1 CLA      0.069500
    120 H91        87.0200   57.4898   37.0205 dc         1 CLA      0.069500
    121 H8         86.9148   55.7139   38.7909 dc         1 CLA      0.029300
    122 H72        88.0099   53.7542   37.3070 dc         1 CLA      0.044400
    123 H71        87.9681   55.1149   36.1874 dc         1 CLA      0.044400
    124 H62        85.5381   55.4149   36.5546 dc         1 CLA      0.015600
    125 H61        85.7395   53.9064   37.5667 dc         1 CLA      0.015600
    126 H52        86.6062   52.6535   35.6391 dc         1 CLA      0.033200
    127 H51        86.1681   53.9505   34.5989 dc         1 CLA      0.033200
    128 H43        84.9551   50.9565   34.5668 dc         1 CLA      0.037000
    129 H42        84.7868   50.6740   36.2600 dc         1 CLA      0.037000
    130 H41        83.4432   50.9978   35.3238 dc         1 CLA      0.037000
    131 H3A        81.7462   59.0983   36.2576 dc         1 CLA      0.041100
    132 H2A        80.7845   56.4523   36.3137 dc         1 CLA      0.083100
    133 H2         82.8478   53.8694   36.3362 da         1 CLA      0.180900
    134 H18        85.0925   58.1540   44.9551 dc         1 CLA     -0.003900
    135 H13        88.9279   58.5617   41.7735 dc         1 CLA      0.019700
    136 H12        81.6760   53.5046   34.2110 dc         1 CLA      0.120400
    137 H11        83.1848   53.8000   33.2389 dc         1 CLA      0.120400
    138 C1         70.4287   61.7552   49.7243 Z1         2 LUT      0.509236
    139 C2         69.0919   61.5655   50.3809 Z2         2 LUT     -0.434695
    140 C3         68.3588   62.8347   50.8605 Z3         2 LUT      0.437453
    141 O3         68.9054   63.2731   52.1642 S1         2 LUT     -0.547129
    142 C4         68.4219   63.9303   49.8781 Z4         2 LUT     -0.468603
    143 C5         69.4119   63.8521   48.7455 Z5         2 LUT      0.279246
    144 C6         70.3349   62.8834   48.6782 Z6         2 LUT     -0.305473
    145 C7         70.6598   62.3975   47.2991 Z7         2 LUT      0.069402
    146 C8         71.7246   62.6717   46.5288 Z8         2 LUT     -0.191631
    147 C9         72.1010   62.3774   45.2072 Z9         2 LUT      0.196698
    148 C10        73.2370   62.9583   44.7011 Y1         2 LUT     -0.208611
    149 C11        73.9188   62.7977   43.4305 Y2         2 LUT      0.030784
    150 C12        75.0839   63.4183   43.1986 Y3         2 LUT     -0.220316
    151 C13        75.9993   63.3944   42.0824 Y4         2 LUT      0.215937
    152 C14        77.1218   64.1570   42.0308 Y5         2 LUT     -0.185793
    153 C15        78.2801   64.1475   41.1890 Y6         2 LUT     -0.057835
    154 C16        70.8057   60.3287   49.2899 Y7         2 LUT     -0.405615
    155 C17        71.4821   62.1586   50.8516 Y7         2 LUT     -0.405615
    156 C18        68.9736   64.7828   47.6371 Y9         2 LUT     -0.369639
    157 C19        71.2784   61.3372   44.5112 W1         2 LUT     -0.333362
    158 C20        75.4775   62.6541   40.9120 W2         2 LUT     -0.323439
    159 C21        89.3676   64.8917   35.1402 Z1         2 LUT      0.406104
    160 C22        89.8715   64.2055   33.8866 Z2         2 LUT     -0.404965
    161 C23        90.1047   65.0721   32.7301 Z3         2 LUT      0.391255
    162 O23        90.4891   64.1566   31.6733 S1         2 LUT     -0.528210
    163 C24        88.8464   65.8637   32.4785 W6         2 LUT     -0.258361
    164 C25        87.8169   66.0713   33.3607 Z5         2 LUT      0.133546
    165 C26        87.9337   65.4501   34.7530 W8         2 LUT     -0.147008
    166 C27        87.3086   66.3544   35.7958 Z7         2 LUT      0.023843
    167 C28        86.3443   65.8969   36.5430 Z8         2 LUT     -0.216987
    168 C29        85.7341   66.5721   37.6858 Z9         2 LUT      0.206524
    169 C30        84.5526   66.0166   38.0784 Y1         2 LUT     -0.215556
    170 C31        83.5985   66.3271   39.0529 Y2         2 LUT      0.025142
    171 C32        82.6674   65.4628   39.5335 Y3         2 LUT     -0.212209
    172 C33        81.6684   65.7762   40.5906 Y4         2 LUT      0.240937
    173 C34        80.6085   64.9827   40.6014 Y5         2 LUT     -0.218862
    174 C35        79.3693   65.0190   41.3688 Y6         2 LUT     -0.023547
    175 C36        90.4012   65.9831   35.5705 Y7         2 LUT     -0.393485
    176 C37        89.3873   63.9156   36.2845 Y7         2 LUT     -0.393485
    177 C38        86.5447   66.7221   33.0823 Y9         2 LUT     -0.387526
    178 C39        86.2302   67.9006   38.1279 W1         2 LUT     -0.322618
    179 C40        82.0572   66.7723   41.5708 W2         2 LUT     -0.358472
    180 H403       81.9979   67.7796   41.2344 R7         2 LUT      0.097720
    181 H402       81.4128   66.6969   42.4290 R7         2 LUT      0.097720
    182 H401       83.0760   66.5770   41.8389 R7         2 LUT      0.097720
    183 H393       86.2797   68.5996   37.2958 R4         2 LUT      0.082505
    184 H392       85.6289   68.3630   38.9391 R4         2 LUT      0.082505
    185 H391       87.3084   67.9909   38.3529 R4         2 LUT      0.082505
    186 H383       85.6925   66.0963   33.2459 R1         2 LUT      0.104030
    187 H382       86.2585   67.5921   33.7065 R1         2 LUT      0.104030
    188 H381       86.5194   67.1682   32.0781 R1         2 LUT      0.104030
    189 H373       90.3391   63.3771   36.3867 T4         2 LUT      0.089537
    190 H372       89.3166   64.4338   37.2463 T4         2 LUT      0.089537
    191 H371       88.6663   63.1435   36.4107 T4         2 LUT      0.089537
    192 H363       90.3663   66.8239   34.8770 T4         2 LUT      0.089537
    193 H362       90.1294   66.2580   36.6039 T4         2 LUT      0.089537
    194 H361       91.4501   65.5455   35.6779 T4         2 LUT      0.089537
    195 H222       90.8711   63.8424   34.0965 U2         2 LUT      0.127376
    196 H221       89.1224   63.4416   33.5815 U2         2 LUT      0.127376
    197 H203       75.0127   61.7778   41.2594 R7         2 LUT      0.087068
    198 H202       74.6640   63.2463   40.4456 R7         2 LUT      0.087068
    199 H201       76.2284   62.5071   40.1342 R7         2 LUT      0.087068
    200 H193       71.3572   61.4009   43.4140 R4         2 LUT      0.089716
    201 H192       71.4163   60.3664   44.9562 R4         2 LUT      0.089716
    202 H191       70.1156   61.4958   44.5283 R4         2 LUT      0.089716
    203 H183       68.1136   65.3560   47.9283 R1         2 LUT      0.094572
    204 H182       69.7435   65.5005   47.4289 R1         2 LUT      0.094572
    205 H181       68.6555   64.2087   46.7046 R1         2 LUT      0.094572
    206 H173       72.4178   62.3225   50.3201 T4         2 LUT      0.093752
    207 H172       71.1036   63.0686   51.2352 T4         2 LUT      0.093752
    208 H171       71.6168   61.4639   51.6832 T4         2 LUT      0.093752
    209 H163       71.6848   60.3778   48.7621 T4         2 LUT      0.093752
    210 H162       71.0374   59.6522   50.0880 T4         2 LUT      0.093752
    211 H161       69.9806   59.7966   48.7323 T4         2 LUT      0.093752
    212 HO3        68.7093   62.6563   52.8969 Q1         2 LUT      0.300121
    213 H8         72.4781   63.2619   47.0480 U7         2 LUT      0.080784
    214 H7         69.8762   61.7711   46.8022 U6         2 LUT      0.042190
    215 H42        67.4157   63.9600   49.4986 U5         2 LUT      0.145166
    216 H41        68.6816   64.8040   50.4454 U5         2 LUT      0.145166
    217 H35        79.1931   65.6586   42.2743 T3         2 LUT      0.077919
    218 H34        80.5551   64.3434   39.7352 T2         2 LUT      0.073626
    219 H32        82.5753   64.5072   39.0675 T1         2 LUT      0.092510
    220 H31        83.7844   67.2155   39.7071 U9         2 LUT      0.070048
    221 H30        84.2796   65.0671   37.6035 U8         2 LUT      0.085442
    222 H3         67.3287   62.5358   51.0808 U3         2 LUT     -0.031596
    223 H28        86.0609   64.9006   36.3060 U7         2 LUT      0.084728
    224 H27        87.6541   67.3755   35.8249 U6         2 LUT      0.087291
    225 H26        87.3980   64.5221   34.7157 Q6         2 LUT      0.075325
    226 H24        88.8437   66.2877   31.4967 Q5         2 LUT      0.094482
    227 H23        90.9511   65.7731   33.0177 U3         2 LUT     -0.024869
    228 H22        68.3976   61.2377   49.5772 U2         2 LUT      0.127376
    229 H21        69.1449   60.7915   51.2039 U2         2 LUT      0.127376
    230 H15        78.2885   63.4497   40.3683 T3         2 LUT      0.093200
    231 H14        77.1101   64.9011   42.7985 T2         2 LUT      0.068865
    232 H12        75.5185   63.9406   44.0709 T1         2 LUT      0.095507
    233 H11        73.5740   62.0906   42.6948 U9         2 LUT      0.068930
    234 H10        73.6833   63.7859   45.2572 U8         2 LUT      0.083911
    235 H1         90.7208   64.5781   30.8436 Q1         2 LUT      0.297311
@<TRIPOS>BOND
    1     6     1 1
    2     7     2 1
    3     8     3 1
    4     9     4 1
    5    11     4 1
    6    12     6 1
    7    13     9 1
    8    16     9 1
    9    25     5 1
   10    25    16 1
   11    26    10 1
   12    26    17 1
   13    27    18 1
   14    28    14 1
   15    28    19 1
   16    29    12 1
   17    30    13 1
   18    31    24 1
   19    32     1 1
   20    32    25 1
   21    33    21 1
   22    33    26 1
   23    34    22 1
   24    34    27 1
   25    35    23 1
   26    35    28 1
   27    36    12 1
   28    36    24 1
   29    37    13 1
   30    37    15 1
   31    38    31 1
   32    39    20 1
   33    39    32 1
   34    40     2 1
   35    40    33 1
   36    41     3 1
   37    41    34 1
   38    42     4 1
   39    42    35 1
   40    43    38 1
   41    44     5 1
   42    44    17 1
   43    44    39 1
   44    45    10 1
   45    45    18 1
   46    45    40 1
   47    46    19 1
   48    46    41 1
   49    47    14 1
   50    47    16 1
   51    47    42 1
   52    48    38 1
   53    49    48 1
   54    50    49 1
   55    51    50 1
   56    52    51 1
   57    53    51 1
   58    54    53 1
   59    55    54 1
   60    56    55 1
   61    57    56 1
   62    58    56 1
   63    59    58 1
   64    60    59 1
   65    61    60 1
   66    62    61 1
   67    63    61 1
   68    64    27 1
   69    64    46 1
   70    65     5 1
   71    65    10 1
   72    65    64 1
   73    65    14 1
   74    66    23 1
   75    67    23 1
   76    68    23 1
   77    69    22 1
   78    70    22 1
   79    71    22 1
   80    72    21 1
   81    73    21 1
   82    74    21 1
   83    75    20 1
   84    76    20 1
   85    77    20 1
   86    78    15 1
   87    79    15 1
   88    80    15 1
   89    81     8 1
   90    82     8 1
   91    83     8 1
   92    84     7 1
   93    85     7 1
   94    86     6 1
   95    87     6 1
   96    88     3 1
   97    89     3 1
   98    90     1 1
   99    91     1 1
  100    92    63 1
  101    93    63 1
  102    94    63 1
  103    95    62 1
  104    96    62 1
  105    97    62 1
  106    98    60 1
  107    99    60 1
  108   100    59 1
  109   101    59 1
  110   102    58 1
  111   103    58 1
  112   104    57 1
  113   105    57 1
  114   106    57 1
  115   107    55 1
  116   108    55 1
  117   109    54 1
  118   110    54 1
  119   111    53 1
  120   112    53 1
  121   113    19 1
  122   114    18 1
  123   115    17 1
  124   116     9 1
  125   117     2 1
  126   118    52 1
  127   119    52 1
  128   120    52 1
  129   121    51 1
  130   122    50 1
  131   123    50 1
  132   124    49 1
  133   125    49 1
  134   126    48 1
  135   127    48 1
  136   128    43 1
  137   129    43 1
  138   130    43 1
  139   131    39 1
  140   132    32 1
  141   133    31 1
  142   134    61 1
  143   135    56 1
  144   136    24 1
  145   137    24 1
  146   139   138 1
  147   140   139 1
  148   141   140 1
  149   142   140 1
  150   143   142 1
  151   144   138 1
  152   144   143 1
  153   145   144 1
  154   146   145 1
  155   147   146 1
  156   148   147 1
  157   149   148 1
  158   150   149 1
  159   151   150 1
  160   152   151 1
  161   153   152 1
  162   154   138 1
  163   155   138 1
  164   156   143 1
  165   157   147 1
  166   158   151 1
  167   160   159 1
  168   161   160 1
  169   162   161 1
  170   163   161 1
  171   164   163 1
  172   165   159 1
  173   165   164 1
  174   166   165 1
  175   167   166 1
  176   168   167 1
  177   169   168 1
  178   170   169 1
  179   171   170 1
  180   172   171 1
  181   173   172 1
  182   174   153 1
  183   174   173 1
  184   175   159 1
  185   176   159 1
  186   177   164 1
  187   178   168 1
  188   179   172 1
  189   180   179 1
  190   181   179 1
  191   182   179 1
  192   183   178 1
  193   184   178 1
  194   185   178 1
  195   186   177 1
  196   187   177 1
  197   188   177 1
  198   189   176 1
  199   190   176 1
  200   191   176 1
  201   192   175 1
  202   193   175 1
  203   194   175 1
  204   195   160 1
  205   196   160 1
  206   197   158 1
  207   198   158 1
  208   199   158 1
  209   200   157 1
  210   201   157 1
  211   202   157 1
  212   203   156 1
  213   204   156 1
  214   205   156 1
  215   206   155 1
  216   207   155 1
  217   208   155 1
  218   209   154 1
  219   210   154 1
  220   211   154 1
  221   212   141 1
  222   213   146 1
  223   214   145 1
  224   215   142 1
  225   216   142 1
  226   217   174 1
  227   218   173 1
  228   219   171 1
  229   220   170 1
  230   221   169 1
  231   222   140 1
  232   223   167 1
  233   224   166 1
  234   225   165 1
  235   226   163 1
  236   227   161 1
  237   228   139 1
  238   229   139 1
  239   230   153 1
  240   231   152 1
  241   232   150 1
  242   233   149 1
  243   234   148 1
  244   235   162 1
  245   65    153 1
  246   65    174 1
@<TRIPOS>SUBSTRUCTURE
      1 CLA               1 ****               0 ****  **** 
      2 LUT             138 ****               0 ****  **** 
