@<TRIPOS>MOLECULE
Cpptraj generated mol2 file.
  235   246     2     0     0
SMALL
USER_CHARGES


@<TRIPOS>ATOM
      1 CAA        79.7011   59.2773   33.9114 a2         1 CLA     -0.055900
      2 CAB        79.3665   62.6485   43.0605 c8         1 CLA     -0.148500
      3 CAC        72.4409   58.7232   42.1240 a2         1 CLA     -0.012600
      4 CAD        75.3959   56.6112   34.7862 ck         1 CLA      0.398800
      5 NA         78.5173   59.4369   37.2267 ns         1 CLA     -0.225500
      6 CBA        81.0591   59.3216   33.1437 a2         1 CLA     -0.135000
      7 CBB        80.4119   62.5513   43.8866 c0         1 CLA     -0.395200
      8 CBC        72.3170   57.2201   42.0348 a3         1 CLA     -0.037700
      9 CBD        76.9027   57.1424   34.5120 a1         1 CLA     -0.053900
     10 NB         78.2996   60.9215   39.8826 nm         1 CLA     -0.295700
     11 OBD        74.8105   55.8028   34.0646 o2         1 CLA     -0.494600
     12 CGA        81.6560   57.9885   32.6488 c4         1 CLA      0.827000
     13 CGD        77.8759   55.8821   34.5360 c4         1 CLA      0.655300
     14 ND         75.7656   58.5383   37.7414 nm         1 CLA     -0.291600
     15 CED        78.3872   53.7016   35.4683 a3         1 CLA      0.005400
     16 CHA        77.2004   58.0247   35.7196 cs         1 CLA     -0.123800
     17 CHB        80.3261   60.6153   38.5264 aa         1 CLA     -0.291900
     18 CHC        76.9200   61.1080   41.9187 aa         1 CLA     -0.090400
     19 CHD        73.7926   58.3479   39.2341 aa         1 CLA     -0.052000
     20 CMA        81.8678   58.7493   36.7729 a3         1 CLA     -0.230700
     21 CMB        81.6473   62.2823   40.6701 a3         1 CLA     -0.180800
     22 CMC        74.5121   60.8250   43.7945 a3         1 CLA     -0.134000
     23 CMD        72.5337   56.7600   36.7650 a3         1 CLA     -0.141100
     24 C1         82.7215   55.9685   33.2833 a2         1 CLA      0.023000
     25 C1A        78.3947   58.7030   36.0794 ac         1 CLA     -0.015100
     26 C1B        79.6612   61.0896   39.6338 cr         1 CLA      0.054700
     27 C1C        75.7190   60.4429   41.5108 cn         1 CLA     -0.005600
     28 C1D        74.4515   58.0924   38.0197 ap         1 CLA     -0.047300
     29 O1A        81.6099   57.5918   31.4966 o2         1 CLA     -0.610800
     30 O1D        78.8951   55.7842   33.8622 o2         1 CLA     -0.558200
     31 C2         83.3662   55.3866   34.5787 c8         1 CLA     -0.325100
     32 C2A        79.7087   58.7132   35.3357 a1         1 CLA      0.098600
     33 C2B        80.2844   61.7952   40.7801 cb         1 CLA      0.088500
     34 C2C        74.5789   60.1479   42.3864 cb         1 CLA      0.053700
     35 C2D        73.9083   57.2765   36.9043 cb         1 CLA      0.058900
     36 O2A        82.1940   57.3332   33.6617 o1         1 CLA     -0.437200
     37 O2D        77.5004   54.9325   35.4149 o1         1 CLA     -0.357600
     38 C3         84.0659   54.2140   34.6502 c5         1 CLA      0.031200
     39 C3A        80.6502   59.5241   36.2566 a1         1 CLA      0.166800
     40 C3B        79.2479   62.0121   41.7661 cb         1 CLA      0.035000
     41 C3C        73.7387   59.2477   41.6744 cb         1 CLA     -0.089900
     42 C3D        74.9897   57.2207   36.0184 cb         1 CLA     -0.035900
     43 C4         83.4836   52.8736   34.9768 a3         1 CLA     -0.053300
     44 C4A        79.7941   59.9044   37.4162 ac         1 CLA      0.001800
     45 C4B        78.0947   61.3290   41.1885 cn         1 CLA     -0.020900
     46 C4C        74.3577   59.0015   40.3585 cr         1 CLA     -0.044400
     47 C4D        76.0576   58.0245   36.5122 c6         1 CLA     -0.046000
     48 C5         85.6057   54.1848   34.3633 a2         1 CLA     -0.070400
     49 C6         86.3200   55.3738   34.9790 a2         1 CLA      0.043900
     50 C7         86.1822   55.7413   36.4438 a2         1 CLA     -0.150000
     51 C8         86.9198   54.9867   37.5932 a1         1 CLA      0.064200
     52 C9         86.6673   53.3634   37.4643 a3         1 CLA     -0.259300
     53 C10        86.3478   55.3353   38.9773 a2         1 CLA     -0.071900
     54 C11        86.5938   56.6774   39.6490 a2         1 CLA      0.014500
     55 C12        86.4005   56.5665   41.2066 a2         1 CLA     -0.112100
     56 C13        86.5862   57.8679   42.0648 a1         1 CLA      0.089200
     57 C14        87.7745   58.8080   41.6501 a3         1 CLA     -0.239100
     58 C15        86.6564   57.5355   43.5923 a2         1 CLA     -0.102200
     59 C16        85.4626   56.7636   44.1336 a2         1 CLA      0.023900
     60 C17        85.3659   56.7827   45.6996 a2         1 CLA     -0.105700
     61 C18        84.9740   58.1291   46.3655 a1         1 CLA      0.206800
     62 C19        83.6646   58.7883   45.8360 a3         1 CLA     -0.280100
     63 C20        84.9043   57.9798   47.9054 a3         1 CLA     -0.280100
     64 NC         75.5687   59.8085   40.2475 nx         1 CLA     -0.309200
     65 MG         76.9170   59.7667   38.7169 mg         1 CLA      0.895000
     66 HMD3       72.0936   56.5546   37.7221 dc         1 CLA      0.064300
     67 HMD2       72.0411   57.5590   36.2534 dc         1 CLA      0.064300
     68 HMD1       72.5782   55.9376   36.0441 dc         1 CLA      0.064300
     69 HMC3       75.2635   60.4009   44.4968 dc         1 CLA      0.052100
     70 HMC2       74.7445   61.8472   43.6972 dc         1 CLA      0.052100
     71 HMC1       73.5325   60.8527   44.2067 dc         1 CLA      0.052100
     72 HMB3       81.9030   62.5578   39.6643 dc         1 CLA      0.063600
     73 HMB2       81.6592   63.2065   41.2495 dc         1 CLA      0.063600
     74 HMB1       82.3259   61.5038   41.0272 dc         1 CLA      0.063600
     75 HMA3       81.4629   57.8209   37.1637 dc         1 CLA      0.058300
     76 HMA2       82.5184   58.5138   35.8472 dc         1 CLA      0.058300
     77 HMA1       82.4586   59.2486   37.5357 dc         1 CLA      0.058300
     78 HED3       79.3559   54.0389   35.9539 dc         1 CLA      0.079300
     79 HED2       77.9094   53.0199   36.1899 dc         1 CLA      0.079300
     80 HED1       78.5183   53.2541   34.4626 dc         1 CLA      0.079300
     81 HBC3       71.4571   56.9805   42.7215 dc         1 CLA      0.016300
     82 HBC2       72.0856   56.8750   41.0237 dc         1 CLA      0.016300
     83 HBC1       73.1180   56.5493   42.3616 dc         1 CLA      0.016300
     84 HBB2       80.4386   63.0452   44.8791 da         1 CLA      0.183000
     85 HBB1       81.2868   61.9243   43.5629 da         1 CLA      0.183000
     86 HBA2       80.8997   59.8475   32.2081 dc         1 CLA      0.029400
     87 HBA1       81.7938   59.9198   33.6993 dc         1 CLA      0.029400
     88 HAC2       72.3649   58.8848   43.2335 dc         1 CLA      0.029300
     89 HAC1       71.5765   59.1346   41.6291 dc         1 CLA      0.029300
     90 HAA2       78.9224   58.8057   33.3165 dc         1 CLA      0.028700
     91 HAA1       79.5205   60.3420   33.9504 dc         1 CLA      0.028700
     92 H203       85.8409   57.7912   48.4616 dc         1 CLA      0.065600
     93 H202       84.5280   58.9295   48.2338 dc         1 CLA      0.065600
     94 H201       84.0915   57.2755   48.1624 dc         1 CLA      0.065600
     95 H193       83.7151   58.9955   44.7921 dc         1 CLA      0.065600
     96 H192       82.7830   58.2119   45.9678 dc         1 CLA      0.065600
     97 H191       83.4973   59.8146   46.2578 dc         1 CLA      0.065600
     98 H172       84.4370   56.1980   45.8794 dc         1 CLA      0.027600
     99 H171       86.3279   56.3364   45.9454 dc         1 CLA      0.027600
    100 H162       84.5877   57.0150   43.5752 dc         1 CLA      0.002900
    101 H161       85.6314   55.6736   43.8691 dc         1 CLA      0.002900
    102 H152       87.6237   56.9948   43.9330 dc         1 CLA      0.029100
    103 H151       86.5904   58.5447   44.0280 dc         1 CLA      0.029100
    104 H143       88.6977   58.3874   41.9406 dc         1 CLA      0.063600
    105 H142       87.7548   59.0234   40.6129 dc         1 CLA      0.063600
    106 H141       87.7358   59.8094   42.1407 dc         1 CLA      0.063600
    107 H122       85.4296   56.0907   41.4395 dc         1 CLA      0.032500
    108 H121       87.1544   55.8019   41.5035 dc         1 CLA      0.032500
    109 H112       87.5169   57.1909   39.3708 dc         1 CLA      0.006600
    110 H111       85.8540   57.3376   39.2134 dc         1 CLA      0.006600
    111 H102       85.2692   55.0909   39.0953 dc         1 CLA      0.024100
    112 H101       86.8034   54.6048   39.6592 dc         1 CLA      0.024100
    113 HHD        72.7902   57.9600   39.2612 da         1 CLA      0.174300
    114 HHC        76.9268   61.5092   42.9341 da         1 CLA      0.136800
    115 HHB        81.3575   60.8547   38.5106 da         1 CLA      0.138300
    116 HBD        77.0099   57.6069   33.5890 dc         1 CLA      0.107700
    117 HAB        78.5511   63.1466   43.5667 da         1 CLA      0.155200
    118 H93        87.1603   52.9292   38.3685 dc         1 CLA      0.069500
    119 H92        85.6099   52.9992   37.4077 dc         1 CLA      0.069500
    120 H91        87.2220   53.0038   36.6038 dc         1 CLA      0.069500
    121 H8         87.9624   55.1793   37.6696 dc         1 CLA      0.029300
    122 H72        86.5262   56.7542   36.5935 dc         1 CLA      0.044400
    123 H71        85.1081   55.7308   36.6009 dc         1 CLA      0.044400
    124 H62        87.4055   55.2223   34.8367 dc         1 CLA      0.015600
    125 H61        86.0376   56.3177   34.4807 dc         1 CLA      0.015600
    126 H52        86.1095   53.2637   34.5978 dc         1 CLA      0.033200
    127 H51        85.7503   54.3633   33.2339 dc         1 CLA      0.033200
    128 H43        83.4122   52.2687   34.0542 dc         1 CLA      0.037000
    129 H42        84.1617   52.4353   35.6881 dc         1 CLA      0.037000
    130 H41        82.5403   53.0145   35.4572 dc         1 CLA      0.037000
    131 H3A        81.0085   60.4971   35.9274 dc         1 CLA      0.041100
    132 H2A        80.0687   57.6346   35.4612 dc         1 CLA      0.083100
    133 H2         83.2109   55.9004   35.5496 da         1 CLA      0.180900
    134 H18        85.7721   58.8403   46.1838 dc         1 CLA     -0.003900
    135 H13        85.7368   58.5709   41.9785 dc         1 CLA      0.019700
    136 H12        81.9010   55.3982   32.8781 dc         1 CLA      0.120400
    137 H11        83.3900   56.0175   32.4605 dc         1 CLA      0.120400
    138 C1         68.7542   61.3198   49.4061 Z1         2 LUT      0.509236
    139 C2         67.3142   61.3221   49.9091 Z2         2 LUT     -0.434695
    140 C3         66.8209   62.6332   50.3873 Z3         2 LUT      0.437453
    141 O3         66.9734   62.7387   51.7626 S1         2 LUT     -0.547129
    142 C4         67.3904   63.8044   49.6581 Z4         2 LUT     -0.468603
    143 C5         68.1856   63.5354   48.3892 Z5         2 LUT      0.279246
    144 C6         68.9513   62.4638   48.3587 Z6         2 LUT     -0.305473
    145 C7         69.5193   61.9859   47.0037 Z7         2 LUT      0.069402
    146 C8         70.4330   62.7102   46.2570 Z8         2 LUT     -0.191631
    147 C9         70.9540   62.4351   44.9424 Z9         2 LUT      0.196698
    148 C10        71.9972   63.1580   44.3850 Y1         2 LUT     -0.208611
    149 C11        72.7076   63.2059   43.1312 Y2         2 LUT      0.030784
    150 C12        73.7072   64.0965   42.8827 Y3         2 LUT     -0.220316
    151 C13        74.5985   63.9857   41.7151 Y4         2 LUT      0.215937
    152 C14        75.8285   64.5122   41.9098 Y5         2 LUT     -0.185793
    153 C15        77.0240   64.6151   41.1682 Y6         2 LUT     -0.057835
    154 C16        68.9977   59.9270   48.9205 Y7         2 LUT     -0.405615
    155 C17        69.8154   61.7140   50.5464 Y7         2 LUT     -0.405615
    156 C18        67.8652   64.5578   47.2771 Y9         2 LUT     -0.369639
    157 C19        70.2355   61.3320   44.1702 W1         2 LUT     -0.333362
    158 C20        74.0733   63.4201   40.4106 W2         2 LUT     -0.323439
    159 C21        88.4130   65.5336   35.0499 Z1         2 LUT      0.406104
    160 C22        88.8699   64.7622   33.8233 Z2         2 LUT     -0.404965
    161 C23        89.0890   65.5075   32.6230 Z3         2 LUT      0.391255
    162 O23        89.2438   64.5924   31.5394 S1         2 LUT     -0.528210
    163 C24        87.9557   66.4252   32.4328 W6         2 LUT     -0.258361
    164 C25        87.0224   66.7968   33.3387 Z5         2 LUT      0.133546
    165 C26        86.9857   66.1003   34.7546 W8         2 LUT     -0.147008
    166 C27        86.3084   66.8430   35.8358 Z7         2 LUT      0.023843
    167 C28        85.1268   66.3713   36.3561 Z8         2 LUT     -0.216987
    168 C29        84.4164   66.7700   37.6140 Z9         2 LUT      0.206524
    169 C30        83.3608   65.9976   37.9956 Y1         2 LUT     -0.215556
    170 C31        82.6074   66.3001   39.1708 Y2         2 LUT      0.025142
    171 C32        81.3685   65.7338   39.5075 Y3         2 LUT     -0.212209
    172 C33        80.5162   66.0006   40.6270 Y4         2 LUT      0.240937
    173 C34        79.2122   65.4788   40.5054 Y5         2 LUT     -0.218862
    174 C35        78.0826   65.4571   41.3913 Y6         2 LUT     -0.023547
    175 C36        89.5865   66.5850   35.3431 Y7         2 LUT     -0.393485
    176 C37        88.5347   64.5506   36.2031 Y7         2 LUT     -0.393485
    177 C38        86.0032   67.9020   33.0147 Y9         2 LUT     -0.387526
    178 C39        84.8996   68.0381   38.2790 W1         2 LUT     -0.322618
    179 C40        80.8979   67.0876   41.6271 W2         2 LUT     -0.358472
    180 H403       80.1286   67.2667   42.4670 R7         2 LUT      0.097720
    181 H402       81.7329   66.7787   42.1873 R7         2 LUT      0.097720
    182 H401       81.1068   68.0380   41.2289 R7         2 LUT      0.097720
    183 H393       84.2507   68.3999   39.0756 R4         2 LUT      0.082505
    184 H392       85.9451   67.8699   38.6906 R4         2 LUT      0.082505
    185 H391       85.0421   68.8041   37.6225 R4         2 LUT      0.082505
    186 H383       85.4135   68.2691   33.8415 R1         2 LUT      0.104030
    187 H382       86.4699   68.7413   32.5104 R1         2 LUT      0.104030
    188 H381       85.2236   67.4529   32.3496 R1         2 LUT      0.104030
    189 H373       88.3760   63.5422   35.8858 T4         2 LUT      0.089537
    190 H372       89.5906   64.4539   36.6122 T4         2 LUT      0.089537
    191 H371       87.8303   64.7477   37.0739 T4         2 LUT      0.089537
    192 H363       89.4600   66.8616   36.4167 T4         2 LUT      0.089537
    193 H362       90.5996   66.2344   35.2368 T4         2 LUT      0.089537
    194 H361       89.4450   67.4704   34.8209 T4         2 LUT      0.089537
    195 H222       89.7398   64.1943   34.0349 U2         2 LUT      0.127376
    196 H221       88.1798   63.9715   33.5618 U2         2 LUT      0.127376
    197 H203       73.0862   63.8421   40.2111 R7         2 LUT      0.087068
    198 H202       74.7992   63.6261   39.5683 R7         2 LUT      0.087068
    199 H201       73.9601   62.3870   40.4906 R7         2 LUT      0.087068
    200 H193       70.7095   60.3884   44.3082 R4         2 LUT      0.089716
    201 H192       69.1933   61.1854   44.3742 R4         2 LUT      0.089716
    202 H191       70.2383   61.5648   43.1523 R4         2 LUT      0.089716
    203 H183       67.7889   65.5471   47.7445 R1         2 LUT      0.094572
    204 H182       68.5626   64.3543   46.4700 R1         2 LUT      0.094572
    205 H181       66.9379   64.2632   46.8388 R1         2 LUT      0.094572
    206 H173       70.1294   60.9193   51.2999 T4         2 LUT      0.093752
    207 H172       70.7640   61.8621   50.0731 T4         2 LUT      0.093752
    208 H171       69.5609   62.5519   51.1808 T4         2 LUT      0.093752
    209 H163       70.0682   59.8064   48.6613 T4         2 LUT      0.093752
    210 H162       68.8623   59.3410   49.8053 T4         2 LUT      0.093752
    211 H161       68.3685   59.5618   48.0533 T4         2 LUT      0.093752
    212 HO3        66.4225   62.1203   52.3371 Q1         2 LUT      0.300121
    213 H8         70.6985   63.6396   46.7137 U7         2 LUT      0.080784
    214 H7         69.2110   61.0688   46.6292 U6         2 LUT      0.042190
    215 H42        66.5116   64.4211   49.4059 U5         2 LUT      0.145166
    216 H41        68.0014   64.3433   50.3707 U5         2 LUT      0.145166
    217 H35        77.9570   65.9982   42.3709 T3         2 LUT      0.077919
    218 H34        78.9622   64.9976   39.5356 T2         2 LUT      0.073626
    219 H32        80.9936   64.9439   38.8445 T1         2 LUT      0.092510
    220 H31        82.9854   66.8938   39.9486 U9         2 LUT      0.070048
    221 H30        83.0106   65.1934   37.3865 U8         2 LUT      0.085442
    222 H3         65.7684   62.6058   50.2257 U3         2 LUT     -0.031596
    223 H28        84.6158   65.6779   35.7447 U7         2 LUT      0.084728
    224 H27        86.7897   67.6442   36.3987 U6         2 LUT      0.087291
    225 H26        86.3975   65.1549   34.6117 Q6         2 LUT      0.075325
    226 H24        87.9050   66.9427   31.5095 Q5         2 LUT      0.094482
    227 H23        89.9999   66.1280   32.6601 U3         2 LUT     -0.024869
    228 H22        66.6750   61.0892   49.0218 U2         2 LUT      0.127376
    229 H21        66.9148   60.6112   50.6033 U2         2 LUT      0.127376
    230 H15        77.0191   64.0114   40.3399 T3         2 LUT      0.093200
    231 H14        76.1204   65.1358   42.8209 T2         2 LUT      0.068865
    232 H12        74.0968   64.6087   43.8244 T1         2 LUT      0.095507
    233 H11        72.4422   62.5539   42.3500 U9         2 LUT      0.068930
    234 H10        72.3688   63.9367   45.1135 U8         2 LUT      0.083911
    235 H1         89.4669   65.0252   30.6780 Q1         2 LUT      0.297311
@<TRIPOS>BOND
    1     6     1 1
    2     7     2 1
    3     8     3 1
    4     9     4 1
    5    11     4 1
    6    12     6 1
    7    13     9 1
    8    16     9 1
    9    25     5 1
   10    25    16 1
   11    26    10 1
   12    26    17 1
   13    27    18 1
   14    28    14 1
   15    28    19 1
   16    29    12 1
   17    30    13 1
   18    31    24 1
   19    32     1 1
   20    32    25 1
   21    33    21 1
   22    33    26 1
   23    34    22 1
   24    34    27 1
   25    35    23 1
   26    35    28 1
   27    36    12 1
   28    36    24 1
   29    37    13 1
   30    37    15 1
   31    38    31 1
   32    39    20 1
   33    39    32 1
   34    40     2 1
   35    40    33 1
   36    41     3 1
   37    41    34 1
   38    42     4 1
   39    42    35 1
   40    43    38 1
   41    44     5 1
   42    44    17 1
   43    44    39 1
   44    45    10 1
   45    45    18 1
   46    45    40 1
   47    46    19 1
   48    46    41 1
   49    47    14 1
   50    47    16 1
   51    47    42 1
   52    48    38 1
   53    49    48 1
   54    50    49 1
   55    51    50 1
   56    52    51 1
   57    53    51 1
   58    54    53 1
   59    55    54 1
   60    56    55 1
   61    57    56 1
   62    58    56 1
   63    59    58 1
   64    60    59 1
   65    61    60 1
   66    62    61 1
   67    63    61 1
   68    64    27 1
   69    64    46 1
   70    65     5 1
   71    65    10 1
   72    65    64 1
   73    65    14 1
   74    66    23 1
   75    67    23 1
   76    68    23 1
   77    69    22 1
   78    70    22 1
   79    71    22 1
   80    72    21 1
   81    73    21 1
   82    74    21 1
   83    75    20 1
   84    76    20 1
   85    77    20 1
   86    78    15 1
   87    79    15 1
   88    80    15 1
   89    81     8 1
   90    82     8 1
   91    83     8 1
   92    84     7 1
   93    85     7 1
   94    86     6 1
   95    87     6 1
   96    88     3 1
   97    89     3 1
   98    90     1 1
   99    91     1 1
  100    92    63 1
  101    93    63 1
  102    94    63 1
  103    95    62 1
  104    96    62 1
  105    97    62 1
  106    98    60 1
  107    99    60 1
  108   100    59 1
  109   101    59 1
  110   102    58 1
  111   103    58 1
  112   104    57 1
  113   105    57 1
  114   106    57 1
  115   107    55 1
  116   108    55 1
  117   109    54 1
  118   110    54 1
  119   111    53 1
  120   112    53 1
  121   113    19 1
  122   114    18 1
  123   115    17 1
  124   116     9 1
  125   117     2 1
  126   118    52 1
  127   119    52 1
  128   120    52 1
  129   121    51 1
  130   122    50 1
  131   123    50 1
  132   124    49 1
  133   125    49 1
  134   126    48 1
  135   127    48 1
  136   128    43 1
  137   129    43 1
  138   130    43 1
  139   131    39 1
  140   132    32 1
  141   133    31 1
  142   134    61 1
  143   135    56 1
  144   136    24 1
  145   137    24 1
  146   139   138 1
  147   140   139 1
  148   141   140 1
  149   142   140 1
  150   143   142 1
  151   144   138 1
  152   144   143 1
  153   145   144 1
  154   146   145 1
  155   147   146 1
  156   148   147 1
  157   149   148 1
  158   150   149 1
  159   151   150 1
  160   152   151 1
  161   153   152 1
  162   154   138 1
  163   155   138 1
  164   156   143 1
  165   157   147 1
  166   158   151 1
  167   160   159 1
  168   161   160 1
  169   162   161 1
  170   163   161 1
  171   164   163 1
  172   165   159 1
  173   165   164 1
  174   166   165 1
  175   167   166 1
  176   168   167 1
  177   169   168 1
  178   170   169 1
  179   171   170 1
  180   172   171 1
  181   173   172 1
  182   174   153 1
  183   174   173 1
  184   175   159 1
  185   176   159 1
  186   177   164 1
  187   178   168 1
  188   179   172 1
  189   180   179 1
  190   181   179 1
  191   182   179 1
  192   183   178 1
  193   184   178 1
  194   185   178 1
  195   186   177 1
  196   187   177 1
  197   188   177 1
  198   189   176 1
  199   190   176 1
  200   191   176 1
  201   192   175 1
  202   193   175 1
  203   194   175 1
  204   195   160 1
  205   196   160 1
  206   197   158 1
  207   198   158 1
  208   199   158 1
  209   200   157 1
  210   201   157 1
  211   202   157 1
  212   203   156 1
  213   204   156 1
  214   205   156 1
  215   206   155 1
  216   207   155 1
  217   208   155 1
  218   209   154 1
  219   210   154 1
  220   211   154 1
  221   212   141 1
  222   213   146 1
  223   214   145 1
  224   215   142 1
  225   216   142 1
  226   217   174 1
  227   218   173 1
  228   219   171 1
  229   220   170 1
  230   221   169 1
  231   222   140 1
  232   223   167 1
  233   224   166 1
  234   225   165 1
  235   226   163 1
  236   227   161 1
  237   228   139 1
  238   229   139 1
  239   230   153 1
  240   231   152 1
  241   232   150 1
  242   233   149 1
  243   234   148 1
  244   235   162 1
  245   65    153 1
  246   65    174 1
@<TRIPOS>SUBSTRUCTURE
      1 CLA               1 ****               0 ****  **** 
      2 LUT             138 ****               0 ****  **** 
