@<TRIPOS>MOLECULE
Cpptraj generated mol2 file.
  235   246     2     0     0
SMALL
USER_CHARGES


@<TRIPOS>ATOM
      1 CAA        80.0822   57.9857   34.5643 a2         1 CLA     -0.055900
      2 CAB        79.8106   61.4830   43.6545 c8         1 CLA     -0.148500
      3 CAC        72.9978   57.3571   42.8320 a2         1 CLA     -0.012600
      4 CAD        75.8638   55.3981   35.5711 ck         1 CLA      0.398800
      5 NA         78.9224   58.2672   37.9347 ns         1 CLA     -0.225500
      6 CBA        81.3940   57.8626   33.7030 a2         1 CLA     -0.135000
      7 CBB        80.6292   62.5636   43.9102 c0         1 CLA     -0.395200
      8 CBC        73.0622   55.8907   43.0640 a3         1 CLA     -0.037700
      9 CBD        77.2576   55.9524   35.1204 a1         1 CLA     -0.053900
     10 NB         78.8719   59.5682   40.6992 nm         1 CLA     -0.295700
     11 OBD        75.2738   54.5718   34.8805 o2         1 CLA     -0.494600
     12 CGA        81.8073   56.4917   33.3200 c4         1 CLA      0.827000
     13 CGD        78.2284   54.8729   34.7990 c4         1 CLA      0.655300
     14 ND         76.1747   57.4063   38.4205 nm         1 CLA     -0.291600
     15 CED        79.1532   52.8214   35.4511 a3         1 CLA      0.005400
     16 CHA        77.5974   56.7947   36.4245 cs         1 CLA     -0.123800
     17 CHB        80.7712   59.3444   39.0991 aa         1 CLA     -0.291900
     18 CHC        77.4594   59.8130   42.6915 aa         1 CLA     -0.090400
     19 CHD        74.3636   57.0996   40.0623 aa         1 CLA     -0.052000
     20 CMA        82.4386   57.5083   37.2359 a3         1 CLA     -0.230700
     21 CMB        82.0650   61.3273   41.1089 a3         1 CLA     -0.180800
     22 CMC        74.8096   59.6239   44.4372 a3         1 CLA     -0.134000
     23 CMD        73.0971   55.2579   37.8431 a3         1 CLA     -0.141100
     24 C1         82.5191   54.3191   34.1816 a2         1 CLA      0.023000
     25 C1A        78.7891   57.5119   36.7264 ac         1 CLA     -0.015100
     26 C1B        80.1756   59.8411   40.2794 cr         1 CLA      0.054700
     27 C1C        76.3421   59.0399   42.3038 cn         1 CLA     -0.005600
     28 C1D        74.8681   56.8528   38.7829 ap         1 CLA     -0.047300
     29 O1A        81.6593   55.9936   32.2064 o2         1 CLA     -0.610800
     30 O1D        79.0200   54.9364   33.8489 o2         1 CLA     -0.558200
     31 C2         83.2690   54.0237   35.4983 c8         1 CLA     -0.325100
     32 C2A        80.1205   57.4169   35.9802 a1         1 CLA      0.098600
     33 C2B        80.6958   60.7083   41.2820 cb         1 CLA      0.088500
     34 C2C        75.1075   58.9253   43.0789 cb         1 CLA      0.053700
     35 C2D        74.3353   56.0451   37.7386 cb         1 CLA      0.058900
     36 O2A        82.1608   55.7279   34.3882 o1         1 CLA     -0.437200
     37 O2D        78.2130   53.8694   35.7313 o1         1 CLA     -0.357600
     38 C3         84.5099   53.5966   35.6566 c5         1 CLA      0.031200
     39 C3A        81.1085   58.1935   36.8380 a1         1 CLA      0.166800
     40 C3B        79.7332   60.8292   42.3623 cb         1 CLA      0.035000
     41 C3C        74.3394   57.9678   42.4098 cb         1 CLA     -0.089900
     42 C3D        75.4134   55.9721   36.8411 cb         1 CLA     -0.035900
     43 C4         84.7138   52.1026   35.9727 a3         1 CLA     -0.053300
     44 C4A        80.1903   58.6744   38.0503 ac         1 CLA      0.001800
     45 C4B        78.6066   60.0712   41.9530 cn         1 CLA     -0.020900
     46 C4C        74.9895   57.7684   41.1176 cr         1 CLA     -0.044400
     47 C4D        76.5015   56.8282   37.2959 c6         1 CLA     -0.046000
     48 C5         85.7236   54.4943   35.7050 a2         1 CLA     -0.070400
     49 C6         86.1367   54.9229   37.1227 a2         1 CLA      0.043900
     50 C7         87.1197   56.1779   37.0503 a2         1 CLA     -0.150000
     51 C8         88.0350   56.5054   38.2395 a1         1 CLA      0.064200
     52 C9         89.1407   55.4633   38.3181 a3         1 CLA     -0.259300
     53 C10        87.2489   56.7331   39.5773 a2         1 CLA     -0.071900
     54 C11        88.1196   57.2353   40.6914 a2         1 CLA      0.014500
     55 C12        87.2254   57.8580   41.8684 a2         1 CLA     -0.112100
     56 C13        88.0112   58.4922   43.0599 a1         1 CLA      0.089200
     57 C14        89.1374   57.5803   43.6299 a3         1 CLA     -0.239100
     58 C15        87.0637   58.9532   44.2033 a2         1 CLA     -0.102200
     59 C16        87.7166   59.6927   45.3649 a2         1 CLA      0.023900
     60 C17        86.5474   60.1446   46.2606 a2         1 CLA     -0.105700
     61 C18        85.7703   59.1635   47.2189 a1         1 CLA      0.206800
     62 C19        86.6968   58.3682   48.2149 a3         1 CLA     -0.280100
     63 C20        84.5976   59.9243   48.0262 a3         1 CLA     -0.280100
     64 NC         76.2282   58.3960   41.0632 nx         1 CLA     -0.309200
     65 MG         77.4502   58.4753   39.4423 mg         1 CLA      0.895000
     66 HMD3       72.9382   54.6791   38.7402 dc         1 CLA      0.064300
     67 HMD2       72.2266   55.9245   37.6452 dc         1 CLA      0.064300
     68 HMD1       73.0181   54.5633   37.0370 dc         1 CLA      0.064300
     69 HMC3       73.7374   59.6095   44.7167 dc         1 CLA      0.052100
     70 HMC2       75.3062   59.1835   45.2780 dc         1 CLA      0.052100
     71 HMC1       75.0788   60.6947   44.3752 dc         1 CLA      0.052100
     72 HMB3       82.5409   61.5568   42.0021 dc         1 CLA      0.063600
     73 HMB2       82.6543   60.5314   40.6012 dc         1 CLA      0.063600
     74 HMB1       81.9917   62.2151   40.4994 dc         1 CLA      0.063600
     75 HMA3       83.0121   58.1076   37.9640 dc         1 CLA      0.058300
     76 HMA2       82.1326   56.5869   37.7603 dc         1 CLA      0.058300
     77 HMA1       82.9464   57.2321   36.3114 dc         1 CLA      0.058300
     78 HED3       78.8033   51.8873   35.8530 dc         1 CLA      0.079300
     79 HED2       79.3928   52.6081   34.3591 dc         1 CLA      0.079300
     80 HED1       80.0530   53.0453   36.0255 dc         1 CLA      0.079300
     81 HBC3       72.1872   55.6762   43.6940 dc         1 CLA      0.016300
     82 HBC2       72.8728   55.3272   42.0923 dc         1 CLA      0.016300
     83 HBC1       74.0067   55.5505   43.4937 dc         1 CLA      0.016300
     84 HBB2       80.5845   63.0272   44.9068 da         1 CLA      0.183000
     85 HBB1       81.2795   63.0525   43.1461 da         1 CLA      0.183000
     86 HBA2       81.3490   58.4959   32.8371 dc         1 CLA      0.029400
     87 HBA1       82.1569   58.3419   34.2879 dc         1 CLA      0.029400
     88 HAC2       72.5843   57.8097   43.6968 dc         1 CLA      0.029300
     89 HAC1       72.2207   57.5372   42.0989 dc         1 CLA      0.029300
     90 HAA2       79.3960   57.3681   34.0742 dc         1 CLA      0.028700
     91 HAA1       79.7688   58.9868   34.6843 dc         1 CLA      0.028700
     92 H203       85.1296   60.6360   48.6576 dc         1 CLA      0.065600
     93 H202       83.9195   60.3172   47.2746 dc         1 CLA      0.065600
     94 H201       84.1286   59.2664   48.7489 dc         1 CLA      0.065600
     95 H193       86.8348   58.9700   49.0631 dc         1 CLA      0.065600
     96 H192       86.1051   57.5025   48.5507 dc         1 CLA      0.065600
     97 H191       87.6797   58.1322   47.7966 dc         1 CLA      0.065600
     98 H172       86.7737   61.0189   46.8645 dc         1 CLA      0.027600
     99 H171       85.7079   60.4097   45.5846 dc         1 CLA      0.027600
    100 H162       88.4676   59.0881   45.8943 dc         1 CLA      0.002900
    101 H161       88.2122   60.6034   45.0526 dc         1 CLA      0.002900
    102 H152       86.3030   59.6351   43.7332 dc         1 CLA      0.029100
    103 H151       86.5819   58.0318   44.5312 dc         1 CLA      0.029100
    104 H143       88.6415   56.8068   44.2714 dc         1 CLA      0.063600
    105 H142       89.7828   57.1256   42.8864 dc         1 CLA      0.063600
    106 H141       89.8929   58.0662   44.2162 dc         1 CLA      0.063600
    107 H122       86.5811   58.5872   41.4453 dc         1 CLA      0.032500
    108 H121       86.6264   57.0401   42.1450 dc         1 CLA      0.032500
    109 H112       88.8308   56.5050   41.1148 dc         1 CLA      0.006600
    110 H111       88.8102   58.0032   40.3701 dc         1 CLA      0.006600
    111 H102       86.4433   57.4113   39.3944 dc         1 CLA      0.024100
    112 H101       86.7354   55.8251   39.8400 dc         1 CLA      0.024100
    113 HHD        73.3941   56.6661   40.2520 da         1 CLA      0.174300
    114 HHC        77.4954   60.3044   43.6700 da         1 CLA      0.136800
    115 HHB        81.8352   59.4635   38.9451 da         1 CLA      0.138300
    116 HBD        76.9321   56.5411   34.2585 dc         1 CLA      0.107700
    117 HAB        79.1921   61.1270   44.5167 da         1 CLA      0.155200
    118 H93        89.8917   55.7276   39.0925 dc         1 CLA      0.069500
    119 H92        88.7336   54.5075   38.6283 dc         1 CLA      0.069500
    120 H91        89.6955   55.4385   37.3558 dc         1 CLA      0.069500
    121 H8         88.4988   57.4328   37.8450 dc         1 CLA      0.029300
    122 H72        87.7981   56.0809   36.1942 dc         1 CLA      0.044400
    123 H71        86.5195   57.0573   36.9332 dc         1 CLA      0.044400
    124 H62        85.3703   55.2073   37.7567 dc         1 CLA      0.015600
    125 H61        86.6836   54.1758   37.7091 dc         1 CLA      0.015600
    126 H52        86.6238   54.0870   35.2289 dc         1 CLA      0.033200
    127 H51        85.4918   55.3431   35.0478 dc         1 CLA      0.033200
    128 H43        83.8011   51.6027   35.7233 dc         1 CLA      0.037000
    129 H42        85.6489   51.7068   35.5954 dc         1 CLA      0.037000
    130 H41        84.6945   51.8485   37.0615 dc         1 CLA      0.037000
    131 H3A        81.3842   59.1475   36.3701 dc         1 CLA      0.041100
    132 H2A        80.4337   56.3614   36.0484 dc         1 CLA      0.083100
    133 H2         82.8004   54.5181   36.3154 da         1 CLA      0.180900
    134 H18        85.1407   58.4702   46.5754 dc         1 CLA     -0.003900
    135 H13        88.4432   59.4127   42.6482 dc         1 CLA      0.019700
    136 H12        81.7204   53.7215   33.8439 dc         1 CLA      0.120400
    137 H11        83.2191   54.2591   33.3548 dc         1 CLA      0.120400
    138 C1         69.7319   61.3688   49.8871 Z1         2 LUT      0.509236
    139 C2         68.5504   61.3813   50.9114 Z2         2 LUT     -0.434695
    140 C3         67.9174   62.6324   51.3038 Z3         2 LUT      0.437453
    141 O3         68.3305   62.9773   52.6552 S1         2 LUT     -0.547129
    142 C4         68.4085   63.8516   50.5314 Z4         2 LUT     -0.468603
    143 C5         68.7607   63.5717   49.1270 Z5         2 LUT      0.279246
    144 C6         69.4717   62.4407   48.8109 Z6         2 LUT     -0.305473
    145 C7         69.7746   62.0356   47.4671 Z7         2 LUT      0.069402
    146 C8         70.8984   62.4723   46.8179 Z8         2 LUT     -0.191631
    147 C9         71.4554   62.1996   45.4325 Z9         2 LUT      0.196698
    148 C10        72.5427   62.7830   44.9529 Y1         2 LUT     -0.208611
    149 C11        73.2926   62.6391   43.7698 Y2         2 LUT      0.030784
    150 C12        74.5259   63.1827   43.5247 Y3         2 LUT     -0.220316
    151 C13        75.3867   63.0249   42.4408 Y4         2 LUT      0.215937
    152 C14        76.6250   63.6672   42.4578 Y5         2 LUT     -0.185793
    153 C15        77.6403   63.7329   41.4641 Y6         2 LUT     -0.057835
    154 C16        69.8794   59.8365   49.5005 Y7         2 LUT     -0.405615
    155 C17        71.0380   61.6960   50.6991 Y7         2 LUT     -0.405615
    156 C18        67.8258   64.2480   48.0833 Y9         2 LUT     -0.369639
    157 C19        70.7757   61.0553   44.7469 W1         2 LUT     -0.333362
    158 C20        74.9702   62.0795   41.3016 W2         2 LUT     -0.323439
    159 C21        88.9533   65.1611   35.5193 Z1         2 LUT      0.406104
    160 C22        89.3756   64.2300   34.3102 Z2         2 LUT     -0.404965
    161 C23        89.5489   65.0795   32.9985 Z3         2 LUT      0.391255
    162 O23        89.8873   64.1359   32.0231 S1         2 LUT     -0.528210
    163 C24        88.3300   65.9846   32.6732 W6         2 LUT     -0.258361
    164 C25        87.4291   66.3244   33.6265 Z5         2 LUT      0.133546
    165 C26        87.5284   65.8207   35.0864 W8         2 LUT     -0.147008
    166 C27        86.7653   66.6288   36.1276 Z7         2 LUT      0.023843
    167 C28        85.4905   66.4869   36.4567 Z8         2 LUT     -0.216987
    168 C29        84.8774   66.8712   37.7326 Z9         2 LUT      0.206524
    169 C30        83.7483   66.1519   38.0864 Y1         2 LUT     -0.215556
    170 C31        83.0330   66.1194   39.3701 Y2         2 LUT      0.025142
    171 C32        81.8108   65.5030   39.5046 Y3         2 LUT     -0.212209
    172 C33        80.9432   65.3367   40.6699 Y4         2 LUT      0.240937
    173 C34        79.7847   64.6196   40.6380 Y5         2 LUT     -0.218862
    174 C35        78.8056   64.4102   41.6641 Y6         2 LUT     -0.023547
    175 C36        90.1628   66.1833   35.7087 Y7         2 LUT     -0.393485
    176 C37        88.8121   64.3201   36.7529 Y7         2 LUT     -0.393485
    177 C38        86.2519   67.1966   33.2310 Y9         2 LUT     -0.387526
    178 C39        85.6415   67.8040   38.7306 W1         2 LUT     -0.322618
    179 C40        81.2226   66.3971   41.7109 W2         2 LUT     -0.358472
    180 H403       80.5544   66.4649   42.6058 R7         2 LUT      0.097720
    181 H402       82.1748   66.1619   42.1955 R7         2 LUT      0.097720
    182 H401       81.2592   67.4028   41.2819 R7         2 LUT      0.097720
    183 H393       86.4597   67.1773   39.0789 R4         2 LUT      0.082505
    184 H392       86.0714   68.6178   38.2333 R4         2 LUT      0.082505
    185 H391       85.0529   68.2690   39.5288 R4         2 LUT      0.082505
    186 H383       86.2243   68.0614   33.8254 R1         2 LUT      0.104030
    187 H382       86.4582   67.6135   32.2516 R1         2 LUT      0.104030
    188 H381       85.3038   66.6032   33.1852 R1         2 LUT      0.104030
    189 H373       88.2692   64.8778   37.5560 T4         2 LUT      0.089537
    190 H372       88.1152   63.4866   36.5947 T4         2 LUT      0.089537
    191 H371       89.8161   63.9951   37.0918 T4         2 LUT      0.089537
    192 H363       89.9918   66.9063   36.5540 T4         2 LUT      0.089537
    193 H362       91.1521   65.7479   35.7152 T4         2 LUT      0.089537
    194 H361       90.3266   66.8584   34.8374 T4         2 LUT      0.089537
    195 H222       90.3006   63.7595   34.4439 U2         2 LUT      0.127376
    196 H221       88.5775   63.4845   34.2021 U2         2 LUT      0.127376
    197 H203       74.0349   62.4408   40.7786 R7         2 LUT      0.087068
    198 H202       75.7316   62.0636   40.5173 R7         2 LUT      0.087068
    199 H201       74.7843   61.0410   41.6288 R7         2 LUT      0.087068
    200 H193       70.3984   60.2579   45.4519 R4         2 LUT      0.089716
    201 H192       69.9203   61.3860   44.2465 R4         2 LUT      0.089716
    202 H191       71.3331   60.4718   44.0329 R4         2 LUT      0.089716
    203 H183       67.7334   63.5805   47.1864 R1         2 LUT      0.094572
    204 H182       66.8391   64.3158   48.5879 R1         2 LUT      0.094572
    205 H181       68.0850   65.2755   47.7359 R1         2 LUT      0.094572
    206 H173       71.9263   61.4489   50.0957 T4         2 LUT      0.093752
    207 H172       70.9169   62.7675   51.0510 T4         2 LUT      0.093752
    208 H171       71.2032   61.0591   51.6050 T4         2 LUT      0.093752
    209 H163       70.8573   59.5134   49.1193 T4         2 LUT      0.093752
    210 H162       69.6542   59.1856   50.3524 T4         2 LUT      0.093752
    211 H161       69.1002   59.5873   48.7674 T4         2 LUT      0.093752
    212 HO3        67.5626   62.8393   53.2315 Q1         2 LUT      0.300121
    213 H8         71.2955   63.1929   47.4737 U7         2 LUT      0.080784
    214 H7         69.1336   61.3026   47.0431 U6         2 LUT      0.042190
    215 H42        67.6034   64.6019   50.5232 U5         2 LUT      0.145166
    216 H41        69.2262   64.2544   51.0703 U5         2 LUT      0.145166
    217 H35        79.0642   64.8191   42.6303 T3         2 LUT      0.077919
    218 H34        79.5940   64.2123   39.6799 T2         2 LUT      0.073626
    219 H32        81.4850   65.0235   38.6346 T1         2 LUT      0.092510
    220 H31        83.4862   66.5693   40.2764 U9         2 LUT      0.070048
    221 H30        83.3922   65.4132   37.4120 U8         2 LUT      0.085442
    222 H3         66.7521   62.5347   51.1039 U3         2 LUT     -0.031596
    223 H28        84.8429   65.9228   35.8714 U7         2 LUT      0.084728
    224 H27        87.3613   66.9078   36.9468 U6         2 LUT      0.087291
    225 H26        86.9182   64.9223   34.8592 Q6         2 LUT      0.075325
    226 H24        88.2976   66.4739   31.7118 Q5         2 LUT      0.094482
    227 H23        90.3760   65.7364   33.1342 U3         2 LUT     -0.024869
    228 H22        67.7447   60.8270   50.4176 U2         2 LUT      0.127376
    229 H21        68.9632   60.8731   51.7492 U2         2 LUT      0.127376
    230 H15        77.3687   63.2840   40.4900 T3         2 LUT      0.093200
    231 H14        76.7846   64.1591   43.3608 T2         2 LUT      0.068865
    232 H12        74.8158   63.8495   44.3546 T1         2 LUT      0.095507
    233 H11        72.6634   61.9826   43.0886 U9         2 LUT      0.068930
    234 H10        72.8464   63.6093   45.6071 U8         2 LUT      0.083911
    235 H1         89.9595   64.5401   31.1134 Q1         2 LUT      0.297311
@<TRIPOS>BOND
    1     6     1 1
    2     7     2 1
    3     8     3 1
    4     9     4 1
    5    11     4 1
    6    12     6 1
    7    13     9 1
    8    16     9 1
    9    25     5 1
   10    25    16 1
   11    26    10 1
   12    26    17 1
   13    27    18 1
   14    28    14 1
   15    28    19 1
   16    29    12 1
   17    30    13 1
   18    31    24 1
   19    32     1 1
   20    32    25 1
   21    33    21 1
   22    33    26 1
   23    34    22 1
   24    34    27 1
   25    35    23 1
   26    35    28 1
   27    36    12 1
   28    36    24 1
   29    37    13 1
   30    37    15 1
   31    38    31 1
   32    39    20 1
   33    39    32 1
   34    40     2 1
   35    40    33 1
   36    41     3 1
   37    41    34 1
   38    42     4 1
   39    42    35 1
   40    43    38 1
   41    44     5 1
   42    44    17 1
   43    44    39 1
   44    45    10 1
   45    45    18 1
   46    45    40 1
   47    46    19 1
   48    46    41 1
   49    47    14 1
   50    47    16 1
   51    47    42 1
   52    48    38 1
   53    49    48 1
   54    50    49 1
   55    51    50 1
   56    52    51 1
   57    53    51 1
   58    54    53 1
   59    55    54 1
   60    56    55 1
   61    57    56 1
   62    58    56 1
   63    59    58 1
   64    60    59 1
   65    61    60 1
   66    62    61 1
   67    63    61 1
   68    64    27 1
   69    64    46 1
   70    65     5 1
   71    65    10 1
   72    65    64 1
   73    65    14 1
   74    66    23 1
   75    67    23 1
   76    68    23 1
   77    69    22 1
   78    70    22 1
   79    71    22 1
   80    72    21 1
   81    73    21 1
   82    74    21 1
   83    75    20 1
   84    76    20 1
   85    77    20 1
   86    78    15 1
   87    79    15 1
   88    80    15 1
   89    81     8 1
   90    82     8 1
   91    83     8 1
   92    84     7 1
   93    85     7 1
   94    86     6 1
   95    87     6 1
   96    88     3 1
   97    89     3 1
   98    90     1 1
   99    91     1 1
  100    92    63 1
  101    93    63 1
  102    94    63 1
  103    95    62 1
  104    96    62 1
  105    97    62 1
  106    98    60 1
  107    99    60 1
  108   100    59 1
  109   101    59 1
  110   102    58 1
  111   103    58 1
  112   104    57 1
  113   105    57 1
  114   106    57 1
  115   107    55 1
  116   108    55 1
  117   109    54 1
  118   110    54 1
  119   111    53 1
  120   112    53 1
  121   113    19 1
  122   114    18 1
  123   115    17 1
  124   116     9 1
  125   117     2 1
  126   118    52 1
  127   119    52 1
  128   120    52 1
  129   121    51 1
  130   122    50 1
  131   123    50 1
  132   124    49 1
  133   125    49 1
  134   126    48 1
  135   127    48 1
  136   128    43 1
  137   129    43 1
  138   130    43 1
  139   131    39 1
  140   132    32 1
  141   133    31 1
  142   134    61 1
  143   135    56 1
  144   136    24 1
  145   137    24 1
  146   139   138 1
  147   140   139 1
  148   141   140 1
  149   142   140 1
  150   143   142 1
  151   144   138 1
  152   144   143 1
  153   145   144 1
  154   146   145 1
  155   147   146 1
  156   148   147 1
  157   149   148 1
  158   150   149 1
  159   151   150 1
  160   152   151 1
  161   153   152 1
  162   154   138 1
  163   155   138 1
  164   156   143 1
  165   157   147 1
  166   158   151 1
  167   160   159 1
  168   161   160 1
  169   162   161 1
  170   163   161 1
  171   164   163 1
  172   165   159 1
  173   165   164 1
  174   166   165 1
  175   167   166 1
  176   168   167 1
  177   169   168 1
  178   170   169 1
  179   171   170 1
  180   172   171 1
  181   173   172 1
  182   174   153 1
  183   174   173 1
  184   175   159 1
  185   176   159 1
  186   177   164 1
  187   178   168 1
  188   179   172 1
  189   180   179 1
  190   181   179 1
  191   182   179 1
  192   183   178 1
  193   184   178 1
  194   185   178 1
  195   186   177 1
  196   187   177 1
  197   188   177 1
  198   189   176 1
  199   190   176 1
  200   191   176 1
  201   192   175 1
  202   193   175 1
  203   194   175 1
  204   195   160 1
  205   196   160 1
  206   197   158 1
  207   198   158 1
  208   199   158 1
  209   200   157 1
  210   201   157 1
  211   202   157 1
  212   203   156 1
  213   204   156 1
  214   205   156 1
  215   206   155 1
  216   207   155 1
  217   208   155 1
  218   209   154 1
  219   210   154 1
  220   211   154 1
  221   212   141 1
  222   213   146 1
  223   214   145 1
  224   215   142 1
  225   216   142 1
  226   217   174 1
  227   218   173 1
  228   219   171 1
  229   220   170 1
  230   221   169 1
  231   222   140 1
  232   223   167 1
  233   224   166 1
  234   225   165 1
  235   226   163 1
  236   227   161 1
  237   228   139 1
  238   229   139 1
  239   230   153 1
  240   231   152 1
  241   232   150 1
  242   233   149 1
  243   234   148 1
  244   235   162 1
  245   65    153 1
  246   65    174 1
@<TRIPOS>SUBSTRUCTURE
      1 CLA               1 ****               0 ****  **** 
      2 LUT             138 ****               0 ****  **** 
