@<TRIPOS>MOLECULE
Cpptraj generated mol2 file.
  235   246     2     0     0
SMALL
USER_CHARGES


@<TRIPOS>ATOM
      1 CAA        78.2258   59.1564   33.4037 a2         1 CLA     -0.055900
      2 CAB        78.5671   62.1547   42.6222 c8         1 CLA     -0.148500
      3 CAC        71.5798   58.3410   42.0803 a2         1 CLA     -0.012600
      4 CAD        74.2193   56.2073   34.5931 ck         1 CLA      0.398800
      5 NA         77.2873   59.1775   36.8049 ns         1 CLA     -0.225500
      6 CBA        79.3701   59.0589   32.3879 a2         1 CLA     -0.135000
      7 CBB        79.7787   62.2928   43.1714 c0         1 CLA     -0.395200
      8 CBC        71.3683   56.8157   41.7628 a3         1 CLA     -0.037700
      9 CBD        75.6235   56.7985   34.2112 a1         1 CLA     -0.053900
     10 NB         77.3068   60.5347   39.4715 nm         1 CLA     -0.295700
     11 OBD        73.5677   55.4346   33.8672 o2         1 CLA     -0.494600
     12 CGA        79.7892   57.6543   31.9796 c4         1 CLA      0.827000
     13 CGD        76.6082   55.7560   33.9584 c4         1 CLA      0.655300
     14 ND         74.4510   58.2901   37.3716 nm         1 CLA     -0.291600
     15 CED        77.6983   53.8202   34.8581 a3         1 CLA      0.005400
     16 CHA        75.9159   57.7798   35.3805 cs         1 CLA     -0.123800
     17 CHB        79.1377   60.4197   37.9277 aa         1 CLA     -0.291900
     18 CHC        76.0065   60.6697   41.6041 aa         1 CLA     -0.090400
     19 CHD        72.7069   58.1194   39.1369 aa         1 CLA     -0.052000
     20 CMA        80.8158   58.6284   36.1655 a3         1 CLA     -0.230700
     21 CMB        80.6489   62.2624   39.7789 a3         1 CLA     -0.180800
     22 CMC        73.7275   60.1028   43.6975 a3         1 CLA     -0.134000
     23 CMD        71.2301   56.3187   36.6582 a3         1 CLA     -0.141100
     24 C1         80.6778   55.5712   32.7638 a2         1 CLA      0.023000
     25 C1A        77.0936   58.4591   35.6667 ac         1 CLA     -0.015100
     26 C1B        78.5550   60.9421   39.0522 cr         1 CLA      0.054700
     27 C1C        74.8129   59.9678   41.3708 cn         1 CLA     -0.005600
     28 C1D        73.2381   57.8012   37.8139 ap         1 CLA     -0.047300
     29 O1A        79.2835   57.0253   31.0558 o2         1 CLA     -0.610800
     30 O1D        77.3824   55.6027   32.9911 o2         1 CLA     -0.558200
     31 C2         81.2854   55.0957   34.1019 c8         1 CLA     -0.325100
     32 C2A        78.3954   58.5678   34.8569 a1         1 CLA      0.098600
     33 C2B        79.1899   61.7712   40.0195 cb         1 CLA      0.088500
     34 C2C        73.8136   59.6641   42.3192 cb         1 CLA      0.053700
     35 C2D        72.6563   56.9924   36.6755 cb         1 CLA      0.058900
     36 O2A        80.5389   57.0111   32.9139 o1         1 CLA     -0.437200
     37 O2D        76.5888   54.8316   34.9442 o1         1 CLA     -0.357600
     38 C3         82.2643   54.1612   34.2405 c5         1 CLA      0.031200
     39 C3A        79.4687   59.3450   35.7254 a1         1 CLA      0.166800
     40 C3B        78.3418   61.6025   41.2133 cb         1 CLA      0.035000
     41 C3C        72.7903   59.0034   41.5758 cb         1 CLA     -0.089900
     42 C3D        73.7431   56.8177   35.8337 cb         1 CLA     -0.035900
     43 C4         81.9992   52.7508   34.8488 a3         1 CLA     -0.053300
     44 C4A        78.6201   59.5494   36.9244 ac         1 CLA      0.001800
     45 C4B        77.1292   60.9721   40.7761 cn         1 CLA     -0.020900
     46 C4C        73.2838   58.9005   40.1758 cr         1 CLA     -0.044400
     47 C4D        74.8025   57.5972   36.2819 c6         1 CLA     -0.046000
     48 C5         83.7202   54.5458   33.8505 a2         1 CLA     -0.070400
     49 C6         84.2309   55.8249   34.4631 a2         1 CLA      0.043900
     50 C7         84.2564   55.7786   36.0407 a2         1 CLA     -0.150000
     51 C8         84.6620   57.0654   36.8209 a1         1 CLA      0.064200
     52 C9         86.0834   57.5942   36.5509 a3         1 CLA     -0.259300
     53 C10        84.3505   56.9648   38.3221 a2         1 CLA     -0.071900
     54 C11        82.9197   57.0413   38.8048 a2         1 CLA      0.014500
     55 C12        82.9171   57.0101   40.3248 a2         1 CLA     -0.112100
     56 C13        81.5740   57.2156   41.0939 a1         1 CLA      0.089200
     57 C14        81.0743   58.7410   40.9885 a3         1 CLA     -0.239100
     58 C15        81.6295   56.8406   42.6278 a2         1 CLA     -0.102200
     59 C16        82.5748   57.6500   43.5554 a2         1 CLA      0.023900
     60 C17        82.3599   57.1371   44.9572 a2         1 CLA     -0.105700
     61 C18        83.5320   57.4694   45.8591 a1         1 CLA      0.206800
     62 C19        83.9493   58.9141   45.9047 a3         1 CLA     -0.280100
     63 C20        83.3056   56.8845   47.2058 a3         1 CLA     -0.280100
     64 NC         74.5179   59.5394   40.1162 nx         1 CLA     -0.309200
     65 MG         75.7743   59.4983   38.3495 mg         1 CLA      0.895000
     66 HMD3       70.5600   57.0803   36.4227 dc         1 CLA      0.064300
     67 HMD2       71.1883   55.5172   35.9043 dc         1 CLA      0.064300
     68 HMD1       71.0998   56.0039   37.6411 dc         1 CLA      0.064300
     69 HMC3       73.2884   59.2825   44.2803 dc         1 CLA      0.052100
     70 HMC2       74.7734   60.3454   44.0280 dc         1 CLA      0.052100
     71 HMC1       73.1703   61.0250   43.8862 dc         1 CLA      0.052100
     72 HMB3       80.8855   62.3131   38.7407 dc         1 CLA      0.063600
     73 HMB2       80.7149   63.2939   40.2918 dc         1 CLA      0.063600
     74 HMB1       81.4021   61.6257   40.3663 dc         1 CLA      0.063600
     75 HMA3       80.6382   57.7454   36.8337 dc         1 CLA      0.058300
     76 HMA2       81.3415   58.2280   35.3005 dc         1 CLA      0.058300
     77 HMA1       81.5063   59.2741   36.7166 dc         1 CLA      0.058300
     78 HED3       78.4834   54.4399   35.1179 dc         1 CLA      0.079300
     79 HED2       77.5634   53.2120   35.7527 dc         1 CLA      0.079300
     80 HED1       77.7094   53.2935   33.9572 dc         1 CLA      0.079300
     81 HBC3       70.8272   56.5881   40.9258 dc         1 CLA      0.016300
     82 HBC2       72.3351   56.3596   41.7755 dc         1 CLA      0.016300
     83 HBC1       70.8955   56.3667   42.5574 dc         1 CLA      0.016300
     84 HBB2       79.8526   62.6005   44.2135 da         1 CLA      0.183000
     85 HBB1       80.7153   61.9643   42.6731 da         1 CLA      0.183000
     86 HBA2       79.1443   59.4543   31.4392 dc         1 CLA      0.029400
     87 HBA1       80.1901   59.6916   32.6868 dc         1 CLA      0.029400
     88 HAC2       71.5719   58.3910   43.1746 dc         1 CLA      0.029300
     89 HAC1       70.6449   58.9167   41.7799 dc         1 CLA      0.029300
     90 HAA2       77.5484   58.5051   32.9760 dc         1 CLA      0.028700
     91 HAA1       77.8244   60.0993   33.5785 dc         1 CLA      0.028700
     92 H203       83.7757   57.5208   47.9302 dc         1 CLA      0.065600
     93 H202       82.2809   56.8195   47.4017 dc         1 CLA      0.065600
     94 H201       83.6337   55.8165   47.2444 dc         1 CLA      0.065600
     95 H193       83.1089   59.5513   45.9801 dc         1 CLA      0.065600
     96 H192       84.6047   59.1216   46.7574 dc         1 CLA      0.065600
     97 H191       84.6124   59.3672   45.1000 dc         1 CLA      0.065600
     98 H172       81.4492   57.6152   45.3023 dc         1 CLA      0.027600
     99 H171       82.1478   56.0166   44.9359 dc         1 CLA      0.027600
    100 H162       83.6305   57.6072   43.2413 dc         1 CLA      0.002900
    101 H161       82.3794   58.7588   43.5996 dc         1 CLA      0.002900
    102 H152       80.6181   57.0842   42.9598 dc         1 CLA      0.029100
    103 H151       81.9162   55.7845   42.7593 dc         1 CLA      0.029100
    104 H143       81.7744   59.4893   41.3676 dc         1 CLA      0.063600
    105 H142       80.9682   58.9617   39.9561 dc         1 CLA      0.063600
    106 H141       80.1317   58.8755   41.4912 dc         1 CLA      0.063600
    107 H122       83.1735   55.9400   40.5683 dc         1 CLA      0.032500
    108 H121       83.6704   57.7485   40.7361 dc         1 CLA      0.032500
    109 H112       82.5161   57.9374   38.4132 dc         1 CLA      0.006600
    110 H111       82.4363   56.1348   38.3364 dc         1 CLA      0.006600
    111 H102       84.7909   55.9928   38.5809 dc         1 CLA      0.024100
    112 H101       84.9292   57.7294   38.8443 dc         1 CLA      0.024100
    113 HHD        71.6746   57.9397   39.2251 da         1 CLA      0.174300
    114 HHC        76.2438   60.9517   42.6472 da         1 CLA      0.136800
    115 HHB        80.1646   60.7411   37.6477 da         1 CLA      0.138300
    116 HBD        75.5232   57.3553   33.3008 dc         1 CLA      0.107700
    117 HAB        77.7371   62.4484   43.2048 da         1 CLA      0.155200
    118 H93        86.0173   57.9674   35.5504 dc         1 CLA      0.069500
    119 H92        86.4252   58.4676   37.2294 dc         1 CLA      0.069500
    120 H91        86.8806   56.8610   36.7483 dc         1 CLA      0.069500
    121 H8         84.0992   57.9000   36.4320 dc         1 CLA      0.029300
    122 H72        83.2871   55.3502   36.3158 dc         1 CLA      0.044400
    123 H71        84.8920   54.9527   36.3896 dc         1 CLA      0.044400
    124 H62        85.2178   56.0273   34.0406 dc         1 CLA      0.015600
    125 H61        83.6653   56.6751   34.2129 dc         1 CLA      0.015600
    126 H52        84.4330   53.8406   34.3099 dc         1 CLA      0.033200
    127 H51        83.8716   54.3269   32.8025 dc         1 CLA      0.033200
    128 H43        82.1716   52.0485   34.0607 dc         1 CLA      0.037000
    129 H42        82.7002   52.7820   35.7059 dc         1 CLA      0.037000
    130 H41        80.9737   52.6120   35.2661 dc         1 CLA      0.037000
    131 H3A        79.6946   60.2213   35.1928 dc         1 CLA      0.041100
    132 H2A        78.8809   57.5461   34.8006 dc         1 CLA      0.083100
    133 H2         81.2062   55.7755   34.9827 da         1 CLA      0.180900
    134 H18        84.4351   56.9928   45.5070 dc         1 CLA     -0.003900
    135 H13        80.7351   56.6188   40.7140 dc         1 CLA      0.019700
    136 H12        79.6960   55.0181   32.6032 dc         1 CLA      0.120400
    137 H11        81.4009   55.3163   32.0074 dc         1 CLA      0.120400
    138 C1         67.9315   61.4875   49.6733 Z1         2 LUT      0.509236
    139 C2         66.4952   61.3911   50.3051 Z2         2 LUT     -0.434695
    140 C3         65.5839   62.6823   50.4842 Z3         2 LUT      0.437453
    141 O3         65.2189   62.8372   51.9024 S1         2 LUT     -0.547129
    142 C4         66.2124   63.9451   49.9145 Z4         2 LUT     -0.468603
    143 C5         66.9882   63.5948   48.6214 Z5         2 LUT      0.279246
    144 C6         67.8951   62.5232   48.5390 Z6         2 LUT     -0.305473
    145 C7         68.2424   62.0027   47.2349 Z7         2 LUT      0.069402
    146 C8         69.0432   62.6749   46.3716 Z8         2 LUT     -0.191631
    147 C9         69.6564   62.3099   45.1232 Z9         2 LUT      0.196698
    148 C10        70.5889   63.2066   44.5520 Y1         2 LUT     -0.208611
    149 C11        71.2559   63.1355   43.2762 Y2         2 LUT      0.030784
    150 C12        72.2620   63.9190   42.9565 Y3         2 LUT     -0.220316
    151 C13        73.1129   63.7832   41.8672 Y4         2 LUT      0.215937
    152 C14        74.3123   64.4761   41.9102 Y5         2 LUT     -0.185793
    153 C15        75.3946   64.5686   40.9416 Y6         2 LUT     -0.057835
    154 C16        68.4349   60.0412   49.4929 Y7         2 LUT     -0.405615
    155 C17        68.7606   62.2386   50.7813 Y7         2 LUT     -0.405615
    156 C18        66.5952   64.4437   47.4852 Y9         2 LUT     -0.369639
    157 C19        69.0065   61.1992   44.3379 W1         2 LUT     -0.333362
    158 C20        72.7034   62.8202   40.8071 W2         2 LUT     -0.323439
    159 C21        87.2133   65.3529   34.8820 Z1         2 LUT      0.406104
    160 C22        87.8982   64.9597   33.5344 Z2         2 LUT     -0.404965
    161 C23        87.9545   66.0296   32.5256 Z3         2 LUT      0.391255
    162 O23        88.6705   65.5341   31.3836 S1         2 LUT     -0.528210
    163 C24        86.6222   66.7479   32.3756 W6         2 LUT     -0.258361
    164 C25        85.5792   66.6249   33.2476 Z5         2 LUT      0.133546
    165 C26        85.7665   65.7004   34.5154 W8         2 LUT     -0.147008
    166 C27        85.0215   66.3500   35.7361 Z7         2 LUT      0.023843
    167 C28        83.8271   65.7987   36.1556 Z8         2 LUT     -0.216987
    168 C29        83.1446   66.1079   37.4394 Z9         2 LUT      0.206524
    169 C30        81.8467   65.5960   37.5409 Y1         2 LUT     -0.215556
    170 C31        80.8787   65.8095   38.5775 Y2         2 LUT      0.025142
    171 C32        79.6075   65.3431   38.8401 Y3         2 LUT     -0.212209
    172 C33        78.9118   65.6621   40.0758 Y4         2 LUT      0.240937
    173 C34        77.5808   65.1647   40.1260 Y5         2 LUT     -0.218862
    174 C35        76.5996   65.1817   41.1560 Y6         2 LUT     -0.023547
    175 C36        87.9964   66.5743   35.4470 Y7         2 LUT     -0.393485
    176 C37        87.3710   64.2032   35.9014 Y7         2 LUT     -0.393485
    177 C38        84.2894   67.4000   33.0504 Y9         2 LUT     -0.387526
    178 C39        83.7792   67.0727   38.4969 W1         2 LUT     -0.322618
    179 C40        79.6102   66.3743   41.2159 W2         2 LUT     -0.358472
    180 H403       80.5110   65.8292   41.4781 R7         2 LUT      0.097720
    181 H402       79.9318   67.3761   40.9424 R7         2 LUT      0.097720
    182 H401       78.9090   66.5116   42.0389 R7         2 LUT      0.097720
    183 H393       83.5691   66.8025   39.5414 R4         2 LUT      0.082505
    184 H392       84.8802   66.9106   38.4780 R4         2 LUT      0.082505
    185 H391       83.5035   68.1277   38.4318 R4         2 LUT      0.082505
    186 H383       83.5238   66.7155   32.8307 R1         2 LUT      0.104030
    187 H382       83.9970   68.1225   33.8414 R1         2 LUT      0.104030
    188 H381       84.4344   68.0758   32.1735 R1         2 LUT      0.104030
    189 H373       87.2534   64.6543   36.8967 T4         2 LUT      0.089537
    190 H372       86.6583   63.3505   35.7537 T4         2 LUT      0.089537
    191 H371       88.3719   63.8106   35.9005 T4         2 LUT      0.089537
    192 H363       89.0954   66.3556   35.4120 T4         2 LUT      0.089537
    193 H362       87.8133   67.4872   34.8471 T4         2 LUT      0.089537
    194 H361       87.6769   66.7289   36.5113 T4         2 LUT      0.089537
    195 H222       88.9449   64.6409   33.6379 U2         2 LUT      0.127376
    196 H221       87.3542   64.1838   33.0135 U2         2 LUT      0.127376
    197 H203       72.3032   61.8527   41.1707 R7         2 LUT      0.087068
    198 H202       71.9968   63.1788   40.0688 R7         2 LUT      0.087068
    199 H201       73.5596   62.3986   40.1750 R7         2 LUT      0.087068
    200 H193       67.9037   61.1483   44.5738 R4         2 LUT      0.089716
    201 H192       68.9838   61.3496   43.2728 R4         2 LUT      0.089716
    202 H191       69.5921   60.2325   44.4662 R4         2 LUT      0.089716
    203 H183       66.3759   63.8034   46.5730 R1         2 LUT      0.094572
    204 H182       65.7825   65.1610   47.6412 R1         2 LUT      0.094572
    205 H181       67.4057   65.0210   47.1579 R1         2 LUT      0.094572
    206 H173       68.5536   63.2767   51.0162 T4         2 LUT      0.093752
    207 H172       68.5827   61.7343   51.6887 T4         2 LUT      0.093752
    208 H171       69.8960   62.2775   50.7604 T4         2 LUT      0.093752
    209 H163       69.5422   59.9521   49.5866 T4         2 LUT      0.093752
    210 H162       68.0521   59.4560   50.3126 T4         2 LUT      0.093752
    211 H161       68.0240   59.5264   48.6268 T4         2 LUT      0.093752
    212 HO3        65.9392   63.0876   52.4734 Q1         2 LUT      0.300121
    213 H8         69.4330   63.6257   46.7274 U7         2 LUT      0.080784
    214 H7         68.0755   60.9208   47.0349 U6         2 LUT      0.042190
    215 H42        65.4133   64.6781   49.7955 U5         2 LUT      0.145166
    216 H41        66.8727   64.4721   50.6711 U5         2 LUT      0.145166
    217 H35        76.8102   65.7333   42.0106 T3         2 LUT      0.077919
    218 H34        77.4586   64.5914   39.1827 T2         2 LUT      0.073626
    219 H32        79.1902   64.6320   38.1707 T1         2 LUT      0.092510
    220 H31        81.3367   66.5135   39.2167 U9         2 LUT      0.070048
    221 H30        81.3743   65.1091   36.6917 U8         2 LUT      0.085442
    222 H3         64.7061   62.6406   49.9115 U3         2 LUT     -0.031596
    223 H28        83.3503   65.0322   35.4925 U7         2 LUT      0.084728
    224 H27        85.3992   67.2107   36.3141 U6         2 LUT      0.087291
    225 H26        85.2606   64.7176   34.3205 Q6         2 LUT      0.075325
    226 H24        86.4742   67.4280   31.4765 Q5         2 LUT      0.094482
    227 H23        88.6439   66.9298   32.7131 U3         2 LUT     -0.024869
    228 H22        65.8366   60.8291   49.6212 U2         2 LUT      0.127376
    229 H21        66.5427   60.9389   51.3407 U2         2 LUT      0.127376
    230 H15        75.4668   63.9089   40.0357 T3         2 LUT      0.093200
    231 H14        74.5286   65.1235   42.7404 T2         2 LUT      0.068865
    232 H12        72.6527   64.5602   43.7663 T1         2 LUT      0.095507
    233 H11        70.8962   62.2932   42.6850 U9         2 LUT      0.068930
    234 H10        70.9440   63.9715   45.2491 U8         2 LUT      0.083911
    235 H1         88.1671   65.3567   30.6011 Q1         2 LUT      0.297311
@<TRIPOS>BOND
    1     6     1 1
    2     7     2 1
    3     8     3 1
    4     9     4 1
    5    11     4 1
    6    12     6 1
    7    13     9 1
    8    16     9 1
    9    25     5 1
   10    25    16 1
   11    26    10 1
   12    26    17 1
   13    27    18 1
   14    28    14 1
   15    28    19 1
   16    29    12 1
   17    30    13 1
   18    31    24 1
   19    32     1 1
   20    32    25 1
   21    33    21 1
   22    33    26 1
   23    34    22 1
   24    34    27 1
   25    35    23 1
   26    35    28 1
   27    36    12 1
   28    36    24 1
   29    37    13 1
   30    37    15 1
   31    38    31 1
   32    39    20 1
   33    39    32 1
   34    40     2 1
   35    40    33 1
   36    41     3 1
   37    41    34 1
   38    42     4 1
   39    42    35 1
   40    43    38 1
   41    44     5 1
   42    44    17 1
   43    44    39 1
   44    45    10 1
   45    45    18 1
   46    45    40 1
   47    46    19 1
   48    46    41 1
   49    47    14 1
   50    47    16 1
   51    47    42 1
   52    48    38 1
   53    49    48 1
   54    50    49 1
   55    51    50 1
   56    52    51 1
   57    53    51 1
   58    54    53 1
   59    55    54 1
   60    56    55 1
   61    57    56 1
   62    58    56 1
   63    59    58 1
   64    60    59 1
   65    61    60 1
   66    62    61 1
   67    63    61 1
   68    64    27 1
   69    64    46 1
   70    65     5 1
   71    65    10 1
   72    65    64 1
   73    65    14 1
   74    66    23 1
   75    67    23 1
   76    68    23 1
   77    69    22 1
   78    70    22 1
   79    71    22 1
   80    72    21 1
   81    73    21 1
   82    74    21 1
   83    75    20 1
   84    76    20 1
   85    77    20 1
   86    78    15 1
   87    79    15 1
   88    80    15 1
   89    81     8 1
   90    82     8 1
   91    83     8 1
   92    84     7 1
   93    85     7 1
   94    86     6 1
   95    87     6 1
   96    88     3 1
   97    89     3 1
   98    90     1 1
   99    91     1 1
  100    92    63 1
  101    93    63 1
  102    94    63 1
  103    95    62 1
  104    96    62 1
  105    97    62 1
  106    98    60 1
  107    99    60 1
  108   100    59 1
  109   101    59 1
  110   102    58 1
  111   103    58 1
  112   104    57 1
  113   105    57 1
  114   106    57 1
  115   107    55 1
  116   108    55 1
  117   109    54 1
  118   110    54 1
  119   111    53 1
  120   112    53 1
  121   113    19 1
  122   114    18 1
  123   115    17 1
  124   116     9 1
  125   117     2 1
  126   118    52 1
  127   119    52 1
  128   120    52 1
  129   121    51 1
  130   122    50 1
  131   123    50 1
  132   124    49 1
  133   125    49 1
  134   126    48 1
  135   127    48 1
  136   128    43 1
  137   129    43 1
  138   130    43 1
  139   131    39 1
  140   132    32 1
  141   133    31 1
  142   134    61 1
  143   135    56 1
  144   136    24 1
  145   137    24 1
  146   139   138 1
  147   140   139 1
  148   141   140 1
  149   142   140 1
  150   143   142 1
  151   144   138 1
  152   144   143 1
  153   145   144 1
  154   146   145 1
  155   147   146 1
  156   148   147 1
  157   149   148 1
  158   150   149 1
  159   151   150 1
  160   152   151 1
  161   153   152 1
  162   154   138 1
  163   155   138 1
  164   156   143 1
  165   157   147 1
  166   158   151 1
  167   160   159 1
  168   161   160 1
  169   162   161 1
  170   163   161 1
  171   164   163 1
  172   165   159 1
  173   165   164 1
  174   166   165 1
  175   167   166 1
  176   168   167 1
  177   169   168 1
  178   170   169 1
  179   171   170 1
  180   172   171 1
  181   173   172 1
  182   174   153 1
  183   174   173 1
  184   175   159 1
  185   176   159 1
  186   177   164 1
  187   178   168 1
  188   179   172 1
  189   180   179 1
  190   181   179 1
  191   182   179 1
  192   183   178 1
  193   184   178 1
  194   185   178 1
  195   186   177 1
  196   187   177 1
  197   188   177 1
  198   189   176 1
  199   190   176 1
  200   191   176 1
  201   192   175 1
  202   193   175 1
  203   194   175 1
  204   195   160 1
  205   196   160 1
  206   197   158 1
  207   198   158 1
  208   199   158 1
  209   200   157 1
  210   201   157 1
  211   202   157 1
  212   203   156 1
  213   204   156 1
  214   205   156 1
  215   206   155 1
  216   207   155 1
  217   208   155 1
  218   209   154 1
  219   210   154 1
  220   211   154 1
  221   212   141 1
  222   213   146 1
  223   214   145 1
  224   215   142 1
  225   216   142 1
  226   217   174 1
  227   218   173 1
  228   219   171 1
  229   220   170 1
  230   221   169 1
  231   222   140 1
  232   223   167 1
  233   224   166 1
  234   225   165 1
  235   226   163 1
  236   227   161 1
  237   228   139 1
  238   229   139 1
  239   230   153 1
  240   231   152 1
  241   232   150 1
  242   233   149 1
  243   234   148 1
  244   235   162 1
  245   65    153 1
  246   65    174 1
@<TRIPOS>SUBSTRUCTURE
      1 CLA               1 ****               0 ****  **** 
      2 LUT             138 ****               0 ****  **** 
