@<TRIPOS>MOLECULE
Cpptraj generated mol2 file.
  235   246     2     0     0
SMALL
USER_CHARGES


@<TRIPOS>ATOM
      1 CAA        80.3465   58.6059   34.4378 a2         1 CLA     -0.055900
      2 CAB        80.4036   62.0222   43.5578 c8         1 CLA     -0.148500
      3 CAC        73.5139   57.8964   43.1621 a2         1 CLA     -0.012600
      4 CAD        76.2720   55.7916   35.6304 ck         1 CLA      0.398800
      5 NA         79.2469   58.9355   37.7928 ns         1 CLA     -0.225500
      6 CBA        81.5878   58.2688   33.5487 a2         1 CLA     -0.135000
      7 CBB        80.1319   61.2762   44.6847 c0         1 CLA     -0.395200
      8 CBC        73.5170   56.3688   43.3861 a3         1 CLA     -0.037700
      9 CBD        77.7100   56.4809   35.2402 a1         1 CLA     -0.053900
     10 NB         79.2188   60.2756   40.5655 nm         1 CLA     -0.295700
     11 OBD        75.7823   54.9489   34.8434 o2         1 CLA     -0.494600
     12 CGA        81.9368   56.8267   33.2591 c4         1 CLA      0.827000
     13 CGD        78.7602   55.4273   35.1006 c4         1 CLA      0.655300
     14 ND         76.5031   57.8186   38.4932 nm         1 CLA     -0.291600
     15 CED        80.1171   53.8908   36.2803 a3         1 CLA      0.005400
     16 CHA        77.9705   57.4263   36.3936 cs         1 CLA     -0.123800
     17 CHB        81.0170   60.1898   38.9256 aa         1 CLA     -0.291900
     18 CHC        77.7758   60.5509   42.5941 aa         1 CLA     -0.090400
     19 CHD        74.8917   57.3453   40.2771 aa         1 CLA     -0.052000
     20 CMA        82.6684   58.0432   37.2607 a3         1 CLA     -0.230700
     21 CMB        82.3457   62.2476   40.9352 a3         1 CLA     -0.180800
     22 CMC        75.4966   60.0198   44.5824 a3         1 CLA     -0.134000
     23 CMD        73.8303   55.2702   38.0108 a3         1 CLA     -0.141100
     24 C1         83.0374   54.8741   34.1404 a2         1 CLA      0.023000
     25 C1A        79.1090   58.2370   36.7056 ac         1 CLA     -0.015100
     26 C1B        80.4770   60.5994   40.1290 cr         1 CLA      0.054700
     27 C1C        76.6842   59.7131   42.3221 cn         1 CLA     -0.005600
     28 C1D        75.4038   57.1357   38.9349 ap         1 CLA     -0.047300
     29 O1A        81.8197   56.2191   32.2024 o2         1 CLA     -0.610800
     30 O1D        79.3855   55.2222   34.0849 o2         1 CLA     -0.558200
     31 C2         83.5763   54.2850   35.4833 c8         1 CLA     -0.325100
     32 C2A        80.4659   58.1422   35.9367 a1         1 CLA      0.098600
     33 C2B        81.0045   61.5451   41.0784 cb         1 CLA      0.088500
     34 C2C        75.6361   59.3900   43.2659 cb         1 CLA      0.053700
     35 C2D        74.9537   56.1484   37.9356 cb         1 CLA      0.058900
     36 O2A        82.5372   56.2141   34.3764 o1         1 CLA     -0.437200
     37 O2D        78.9374   54.7130   36.3122 o1         1 CLA     -0.357600
     38 C3         84.3016   53.1460   35.6407 c5         1 CLA      0.031200
     39 C3A        81.4521   58.9250   36.8281 a1         1 CLA      0.166800
     40 C3B        80.1375   61.4324   42.1833 cb         1 CLA      0.035000
     41 C3C        74.7961   58.4579   42.5917 cb         1 CLA     -0.089900
     42 C3D        75.9275   56.3164   36.8963 cb         1 CLA     -0.035900
     43 C4         83.7000   51.7842   35.9140 a3         1 CLA     -0.053300
     44 C4A        80.5008   59.3014   38.0091 ac         1 CLA      0.001800
     45 C4B        78.9299   60.7221   41.8234 cn         1 CLA     -0.020900
     46 C4C        75.3893   58.2740   41.2412 cr         1 CLA     -0.044400
     47 C4D        76.8517   57.2779   37.2993 c6         1 CLA     -0.046000
     48 C5         85.8289   53.1676   35.5603 a2         1 CLA     -0.070400
     49 C6         86.4929   54.0991   36.5838 a2         1 CLA      0.043900
     50 C7         86.6249   55.5296   36.0280 a2         1 CLA     -0.150000
     51 C8         87.4278   56.6091   36.8971 a1         1 CLA      0.064200
     52 C9         88.8299   56.0499   37.1557 a3         1 CLA     -0.259300
     53 C10        86.5752   56.9768   38.1522 a2         1 CLA     -0.071900
     54 C11        87.3877   57.5914   39.3395 a2         1 CLA      0.014500
     55 C12        86.6508   57.6079   40.6715 a2         1 CLA     -0.112100
     56 C13        87.4090   58.3184   41.8649 a1         1 CLA      0.089200
     57 C14        88.7370   57.5595   42.2545 a3         1 CLA     -0.239100
     58 C15        86.4000   58.4745   43.1002 a2         1 CLA     -0.102200
     59 C16        86.8948   59.6268   44.0667 a2         1 CLA      0.023900
     60 C17        85.6891   60.4319   44.5302 a2         1 CLA     -0.105700
     61 C18        84.6021   59.8192   45.4716 a1         1 CLA      0.206800
     62 C19        85.1750   58.9131   46.6249 a3         1 CLA     -0.280100
     63 C20        83.7083   60.9349   46.0837 a3         1 CLA     -0.280100
     64 NC         76.5037   59.0644   41.1342 nx         1 CLA     -0.309200
     65 MG         77.7842   59.2664   39.3921 mg         1 CLA      0.895000
     66 HMD3       73.9294   54.5378   38.7977 dc         1 CLA      0.064300
     67 HMD2       72.8882   55.7625   38.1438 dc         1 CLA      0.064300
     68 HMD1       73.8498   54.7209   37.0538 dc         1 CLA      0.064300
     69 HMC3       76.4474   60.0778   45.0315 dc         1 CLA      0.052100
     70 HMC2       75.0860   61.0381   44.3592 dc         1 CLA      0.052100
     71 HMC1       74.8016   59.3774   45.0912 dc         1 CLA      0.052100
     72 HMB3       83.0107   61.4921   41.1915 dc         1 CLA      0.063600
     73 HMB2       82.5887   62.6208   39.8982 dc         1 CLA      0.063600
     74 HMB1       82.4434   62.9408   41.7526 dc         1 CLA      0.063600
     75 HMA3       83.3712   57.9286   36.4272 dc         1 CLA      0.058300
     76 HMA2       83.1828   58.6879   38.0700 dc         1 CLA      0.058300
     77 HMA1       82.3881   57.1612   37.7941 dc         1 CLA      0.058300
     78 HED3       80.2328   53.4936   35.2947 dc         1 CLA      0.079300
     79 HED2       81.0126   54.5244   36.4408 dc         1 CLA      0.079300
     80 HED1       80.0372   53.0206   36.9367 dc         1 CLA      0.079300
     81 HBC3       73.6571   55.8732   42.4136 dc         1 CLA      0.016300
     82 HBC2       74.3336   56.1704   44.1045 dc         1 CLA      0.016300
     83 HBC1       72.6091   56.1492   43.9531 dc         1 CLA      0.016300
     84 HBB2       80.4762   61.6853   45.6349 da         1 CLA      0.183000
     85 HBB1       79.6697   60.2955   44.6264 da         1 CLA      0.183000
     86 HBA2       81.3821   58.8017   32.6326 dc         1 CLA      0.029400
     87 HBA1       82.4535   58.6963   34.0735 dc         1 CLA      0.029400
     88 HAC2       73.2914   58.4463   44.0744 dc         1 CLA      0.029300
     89 HAC1       72.7502   58.1017   42.4267 dc         1 CLA      0.029300
     90 HAA2       79.4222   58.2152   34.0007 dc         1 CLA      0.028700
     91 HAA1       80.1699   59.6760   34.3636 dc         1 CLA      0.028700
     92 H203       83.5823   61.6649   45.2477 dc         1 CLA      0.065600
     93 H202       82.7289   60.5151   46.2999 dc         1 CLA      0.065600
     94 H201       84.2819   61.3196   46.9134 dc         1 CLA      0.065600
     95 H193       85.8302   58.1033   46.3313 dc         1 CLA      0.065600
     96 H192       85.7140   59.5603   47.2816 dc         1 CLA      0.065600
     97 H191       84.3644   58.6192   47.2075 dc         1 CLA      0.065600
     98 H172       86.2253   61.1535   45.1061 dc         1 CLA      0.027600
     99 H171       85.0988   60.9015   43.6824 dc         1 CLA      0.027600
    100 H162       87.5587   59.3204   44.8811 dc         1 CLA      0.002900
    101 H161       87.5404   60.2477   43.4804 dc         1 CLA      0.002900
    102 H152       85.4909   58.8402   42.6548 dc         1 CLA      0.029100
    103 H151       86.1517   57.5670   43.5694 dc         1 CLA      0.029100
    104 H143       88.5403   56.5537   42.3867 dc         1 CLA      0.063600
    105 H142       89.5258   57.6243   41.4063 dc         1 CLA      0.063600
    106 H141       89.0615   57.9401   43.2207 dc         1 CLA      0.063600
    107 H122       85.6948   58.0519   40.4766 dc         1 CLA      0.032500
    108 H121       86.5514   56.4853   40.8861 dc         1 CLA      0.032500
    109 H112       88.3056   56.9451   39.4480 dc         1 CLA      0.006600
    110 H111       87.7166   58.6348   39.1619 dc         1 CLA      0.006600
    111 H102       85.7771   57.6667   37.9254 dc         1 CLA      0.024100
    112 H101       86.0418   56.1332   38.5651 dc         1 CLA      0.024100
    113 HHD        73.9520   56.8502   40.6325 da         1 CLA      0.174300
    114 HHC        77.8190   60.8803   43.6147 da         1 CLA      0.136800
    115 HHB        81.9973   60.5357   38.7113 da         1 CLA      0.138300
    116 HBD        77.5592   56.9187   34.2579 dc         1 CLA      0.107700
    117 HAB        81.0689   62.8939   43.6487 da         1 CLA      0.155200
    118 H93        88.6676   55.3269   37.9671 dc         1 CLA      0.069500
    119 H92        89.3994   55.5281   36.4351 dc         1 CLA      0.069500
    120 H91        89.5043   56.8632   37.4284 dc         1 CLA      0.069500
    121 H8         87.5404   57.4847   36.2837 dc         1 CLA      0.029300
    122 H72        87.2261   55.4358   35.1231 dc         1 CLA      0.044400
    123 H71        85.6045   55.8733   35.7784 dc         1 CLA      0.044400
    124 H62        85.8678   54.2100   37.4267 dc         1 CLA      0.015600
    125 H61        87.5011   53.9060   36.8908 dc         1 CLA      0.015600
    126 H52        86.2706   52.1700   35.8094 dc         1 CLA      0.033200
    127 H51        86.1962   53.4576   34.5441 dc         1 CLA      0.033200
    128 H43        82.8209   51.9960   36.4297 dc         1 CLA      0.037000
    129 H42        83.6197   51.2239   34.9874 dc         1 CLA      0.037000
    130 H41        84.5003   51.2427   36.4931 dc         1 CLA      0.037000
    131 H3A        81.7085   59.9585   36.4127 dc         1 CLA      0.041100
    132 H2A        80.7886   57.1327   35.9495 dc         1 CLA      0.083100
    133 H2         83.3580   54.8194   36.3549 da         1 CLA      0.180900
    134 H18        84.0945   59.1513   44.8002 dc         1 CLA     -0.003900
    135 H13        87.6202   59.3029   41.5932 dc         1 CLA      0.019700
    136 H12        82.1089   54.3122   33.9843 dc         1 CLA      0.120400
    137 H11        83.6724   54.7034   33.2614 dc         1 CLA      0.120400
    138 C1         70.2216   61.8040   50.3418 Z1         2 LUT      0.509236
    139 C2         68.8274   61.6049   51.0015 Z2         2 LUT     -0.434695
    140 C3         67.8687   62.8375   51.1176 Z3         2 LUT      0.437453
    141 O3         67.9059   63.3505   52.4024 S1         2 LUT     -0.547129
    142 C4         68.2118   64.0171   50.2086 Z4         2 LUT     -0.468603
    143 C5         68.9098   63.5366   48.9130 Z5         2 LUT      0.279246
    144 C6         69.8613   62.5434   49.0073 Z6         2 LUT     -0.305473
    145 C7         70.5412   62.0773   47.8034 Z7         2 LUT      0.069402
    146 C8         71.5797   62.6985   47.1163 Z8         2 LUT     -0.191631
    147 C9         72.0863   62.4171   45.7615 Z9         2 LUT      0.196698
    148 C10        72.9405   63.3125   45.2277 Y1         2 LUT     -0.208611
    149 C11        73.6553   63.2309   43.9671 Y2         2 LUT      0.030784
    150 C12        74.8868   63.7918   43.7515 Y3         2 LUT     -0.220316
    151 C13        75.8060   63.7575   42.6522 Y4         2 LUT      0.215937
    152 C14        77.0406   64.3162   42.7700 Y5         2 LUT     -0.185793
    153 C15        78.1273   64.3438   41.8532 Y6         2 LUT     -0.057835
    154 C16        70.9492   60.4956   50.0762 Y7         2 LUT     -0.405615
    155 C17        70.9801   62.6595   51.3383 Y7         2 LUT     -0.405615
    156 C18        68.5494   64.3347   47.7407 Y9         2 LUT     -0.369639
    157 C19        71.6792   61.0901   45.0279 W1         2 LUT     -0.333362
    158 C20        75.3771   63.0428   41.3985 W2         2 LUT     -0.323439
    159 C21        89.1609   65.6255   35.1054 Z1         2 LUT      0.406104
    160 C22        89.5813   64.7743   33.8817 Z2         2 LUT     -0.404965
    161 C23        89.4347   65.4967   32.6039 Z3         2 LUT      0.391255
    162 O23        89.5627   64.3477   31.7497 S1         2 LUT     -0.528210
    163 C24        88.1929   66.3222   32.4960 W6         2 LUT     -0.258361
    164 C25        87.3811   66.6116   33.5222 Z5         2 LUT      0.133546
    165 C26        87.6357   65.9749   34.9263 W8         2 LUT     -0.147008
    166 C27        86.9975   66.7950   36.0313 Z7         2 LUT      0.023843
    167 C28        85.7592   66.6663   36.5282 Z8         2 LUT     -0.216987
    168 C29        85.2399   67.0983   37.7944 Z9         2 LUT      0.206524
    169 C30        84.1578   66.4574   38.2890 Y1         2 LUT     -0.215556
    170 C31        83.4087   66.6629   39.5090 Y2         2 LUT      0.025142
    171 C32        82.3858   65.7806   39.8861 Y3         2 LUT     -0.212209
    172 C33        81.3989   65.9429   41.0101 Y4         2 LUT      0.240937
    173 C34        80.2876   65.1545   41.0662 Y5         2 LUT     -0.218862
    174 C35        79.2603   65.0954   41.9780 Y6         2 LUT     -0.023547
    175 C36        90.2137   66.7852   35.3207 Y7         2 LUT     -0.393485
    176 C37        89.4155   64.6777   36.2805 Y7         2 LUT     -0.393485
    177 C38        86.0061   67.2246   33.2172 Y9         2 LUT     -0.387526
    178 C39        85.9653   68.1643   38.5745 W1         2 LUT     -0.322618
    179 C40        81.8342   67.0930   41.8501 W2         2 LUT     -0.358472
    180 H403       81.8939   68.0161   41.3508 R7         2 LUT      0.097720
    181 H402       81.0873   67.3295   42.6200 R7         2 LUT      0.097720
    182 H401       82.8129   66.8293   42.3592 R7         2 LUT      0.097720
    183 H393       85.3124   69.0044   38.5264 R4         2 LUT      0.082505
    184 H392       85.9887   67.9349   39.6292 R4         2 LUT      0.082505
    185 H391       87.0598   68.3387   38.4863 R4         2 LUT      0.082505
    186 H383       85.8626   67.7206   32.2304 R1         2 LUT      0.104030
    187 H382       85.2220   66.4481   33.3817 R1         2 LUT      0.104030
    188 H381       85.7552   67.9718   33.9855 R1         2 LUT      0.104030
    189 H373       90.4370   64.2596   36.2766 T4         2 LUT      0.089537
    190 H372       89.2515   65.1596   37.2357 T4         2 LUT      0.089537
    191 H371       88.7882   63.7814   36.1730 T4         2 LUT      0.089537
    192 H363       90.2392   67.2142   36.3101 T4         2 LUT      0.089537
    193 H362       91.3201   66.5213   35.1042 T4         2 LUT      0.089537
    194 H361       90.0761   67.5831   34.5587 T4         2 LUT      0.089537
    195 H222       90.5825   64.4280   33.9299 U2         2 LUT      0.127376
    196 H221       88.8797   63.9451   33.8941 U2         2 LUT      0.127376
    197 H203       76.2373   62.5487   40.9259 R7         2 LUT      0.087068
    198 H202       74.6739   62.2297   41.6334 R7         2 LUT      0.087068
    199 H201       74.9449   63.6893   40.6329 R7         2 LUT      0.087068
    200 H193       71.8505   61.1812   43.9774 R4         2 LUT      0.089716
    201 H192       72.2502   60.3694   45.4650 R4         2 LUT      0.089716
    202 H191       70.5864   60.7615   45.0729 R4         2 LUT      0.089716
    203 H183       69.2469   65.0975   47.6591 R1         2 LUT      0.094572
    204 H182       68.4799   63.7664   46.7826 R1         2 LUT      0.094572
    205 H181       67.5555   64.7953   47.8413 R1         2 LUT      0.094572
    206 H173       71.2454   62.0522   52.2275 T4         2 LUT      0.093752
    207 H172       71.9237   63.0677   50.9601 T4         2 LUT      0.093752
    208 H171       70.4305   63.5050   51.6612 T4         2 LUT      0.093752
    209 H163       71.9691   60.5490   49.5443 T4         2 LUT      0.093752
    210 H162       71.2147   60.0357   51.0492 T4         2 LUT      0.093752
    211 H161       70.4066   59.7112   49.5181 T4         2 LUT      0.093752
    212 HO3        67.2554   62.8845   52.8861 Q1         2 LUT      0.300121
    213 H8         71.8800   63.7124   47.4362 U7         2 LUT      0.080784
    214 H7         70.1757   61.1197   47.4350 U6         2 LUT      0.042190
    215 H42        67.2069   64.5460   49.9612 U5         2 LUT      0.145166
    216 H41        68.8282   64.7309   50.8665 U5         2 LUT      0.145166
    217 H35        79.4878   65.6849   42.9177 T3         2 LUT      0.077919
    218 H34        80.2382   64.4748   40.1715 T2         2 LUT      0.073626
    219 H32        82.2507   64.9168   39.1578 T1         2 LUT      0.092510
    220 H31        83.5817   67.6089   40.1341 U9         2 LUT      0.070048
    221 H30        83.6847   65.6391   37.7471 U8         2 LUT      0.085442
    222 H3         66.8673   62.5741   50.7217 U3         2 LUT     -0.031596
    223 H28        85.1765   65.9416   35.9946 U7         2 LUT      0.084728
    224 H27        87.6994   67.4886   36.5079 U6         2 LUT      0.087291
    225 H26        86.9563   65.0699   34.9202 Q6         2 LUT      0.075325
    226 H24        87.9462   66.7788   31.5069 Q5         2 LUT      0.094482
    227 H23        90.3149   66.0986   32.5375 U3         2 LUT     -0.024869
    228 H22        68.3443   60.8748   50.3961 U2         2 LUT      0.127376
    229 H21        68.9305   61.0095   51.8921 U2         2 LUT      0.127376
    230 H15        78.0176   63.8348   40.9480 T3         2 LUT      0.093200
    231 H14        77.2302   64.8160   43.6932 T2         2 LUT      0.068865
    232 H12        75.3808   64.2904   44.5169 T1         2 LUT      0.095507
    233 H11        73.1741   62.6749   43.1470 U9         2 LUT      0.068930
    234 H10        73.3606   64.1009   45.9295 U8         2 LUT      0.083911
    235 H1         89.7262   64.5889   30.8357 Q1         2 LUT      0.297311
@<TRIPOS>BOND
    1     6     1 1
    2     7     2 1
    3     8     3 1
    4     9     4 1
    5    11     4 1
    6    12     6 1
    7    13     9 1
    8    16     9 1
    9    25     5 1
   10    25    16 1
   11    26    10 1
   12    26    17 1
   13    27    18 1
   14    28    14 1
   15    28    19 1
   16    29    12 1
   17    30    13 1
   18    31    24 1
   19    32     1 1
   20    32    25 1
   21    33    21 1
   22    33    26 1
   23    34    22 1
   24    34    27 1
   25    35    23 1
   26    35    28 1
   27    36    12 1
   28    36    24 1
   29    37    13 1
   30    37    15 1
   31    38    31 1
   32    39    20 1
   33    39    32 1
   34    40     2 1
   35    40    33 1
   36    41     3 1
   37    41    34 1
   38    42     4 1
   39    42    35 1
   40    43    38 1
   41    44     5 1
   42    44    17 1
   43    44    39 1
   44    45    10 1
   45    45    18 1
   46    45    40 1
   47    46    19 1
   48    46    41 1
   49    47    14 1
   50    47    16 1
   51    47    42 1
   52    48    38 1
   53    49    48 1
   54    50    49 1
   55    51    50 1
   56    52    51 1
   57    53    51 1
   58    54    53 1
   59    55    54 1
   60    56    55 1
   61    57    56 1
   62    58    56 1
   63    59    58 1
   64    60    59 1
   65    61    60 1
   66    62    61 1
   67    63    61 1
   68    64    27 1
   69    64    46 1
   70    65     5 1
   71    65    10 1
   72    65    64 1
   73    65    14 1
   74    66    23 1
   75    67    23 1
   76    68    23 1
   77    69    22 1
   78    70    22 1
   79    71    22 1
   80    72    21 1
   81    73    21 1
   82    74    21 1
   83    75    20 1
   84    76    20 1
   85    77    20 1
   86    78    15 1
   87    79    15 1
   88    80    15 1
   89    81     8 1
   90    82     8 1
   91    83     8 1
   92    84     7 1
   93    85     7 1
   94    86     6 1
   95    87     6 1
   96    88     3 1
   97    89     3 1
   98    90     1 1
   99    91     1 1
  100    92    63 1
  101    93    63 1
  102    94    63 1
  103    95    62 1
  104    96    62 1
  105    97    62 1
  106    98    60 1
  107    99    60 1
  108   100    59 1
  109   101    59 1
  110   102    58 1
  111   103    58 1
  112   104    57 1
  113   105    57 1
  114   106    57 1
  115   107    55 1
  116   108    55 1
  117   109    54 1
  118   110    54 1
  119   111    53 1
  120   112    53 1
  121   113    19 1
  122   114    18 1
  123   115    17 1
  124   116     9 1
  125   117     2 1
  126   118    52 1
  127   119    52 1
  128   120    52 1
  129   121    51 1
  130   122    50 1
  131   123    50 1
  132   124    49 1
  133   125    49 1
  134   126    48 1
  135   127    48 1
  136   128    43 1
  137   129    43 1
  138   130    43 1
  139   131    39 1
  140   132    32 1
  141   133    31 1
  142   134    61 1
  143   135    56 1
  144   136    24 1
  145   137    24 1
  146   139   138 1
  147   140   139 1
  148   141   140 1
  149   142   140 1
  150   143   142 1
  151   144   138 1
  152   144   143 1
  153   145   144 1
  154   146   145 1
  155   147   146 1
  156   148   147 1
  157   149   148 1
  158   150   149 1
  159   151   150 1
  160   152   151 1
  161   153   152 1
  162   154   138 1
  163   155   138 1
  164   156   143 1
  165   157   147 1
  166   158   151 1
  167   160   159 1
  168   161   160 1
  169   162   161 1
  170   163   161 1
  171   164   163 1
  172   165   159 1
  173   165   164 1
  174   166   165 1
  175   167   166 1
  176   168   167 1
  177   169   168 1
  178   170   169 1
  179   171   170 1
  180   172   171 1
  181   173   172 1
  182   174   153 1
  183   174   173 1
  184   175   159 1
  185   176   159 1
  186   177   164 1
  187   178   168 1
  188   179   172 1
  189   180   179 1
  190   181   179 1
  191   182   179 1
  192   183   178 1
  193   184   178 1
  194   185   178 1
  195   186   177 1
  196   187   177 1
  197   188   177 1
  198   189   176 1
  199   190   176 1
  200   191   176 1
  201   192   175 1
  202   193   175 1
  203   194   175 1
  204   195   160 1
  205   196   160 1
  206   197   158 1
  207   198   158 1
  208   199   158 1
  209   200   157 1
  210   201   157 1
  211   202   157 1
  212   203   156 1
  213   204   156 1
  214   205   156 1
  215   206   155 1
  216   207   155 1
  217   208   155 1
  218   209   154 1
  219   210   154 1
  220   211   154 1
  221   212   141 1
  222   213   146 1
  223   214   145 1
  224   215   142 1
  225   216   142 1
  226   217   174 1
  227   218   173 1
  228   219   171 1
  229   220   170 1
  230   221   169 1
  231   222   140 1
  232   223   167 1
  233   224   166 1
  234   225   165 1
  235   226   163 1
  236   227   161 1
  237   228   139 1
  238   229   139 1
  239   230   153 1
  240   231   152 1
  241   232   150 1
  242   233   149 1
  243   234   148 1
  244   235   162 1
  245   65    153 1
  246   65    174 1
@<TRIPOS>SUBSTRUCTURE
      1 CLA               1 ****               0 ****  **** 
      2 LUT             138 ****               0 ****  **** 
