@<TRIPOS>MOLECULE
Cpptraj generated mol2 file.
  235   246     2     0     0
SMALL
USER_CHARGES


@<TRIPOS>ATOM
      1 CAA        77.8570   56.3080   34.9653 a2         1 CLA     -0.055900
      2 CAB        78.8747   61.6851   43.0204 c8         1 CLA     -0.148500
      3 CAC        71.7658   58.1288   43.8876 a2         1 CLA     -0.012600
      4 CAD        73.4609   54.8545   36.4413 ck         1 CLA      0.398800
      5 NA         77.1208   57.4349   38.2370 ns         1 CLA     -0.225500
      6 CBA        79.0744   55.8262   34.1339 a2         1 CLA     -0.135000
      7 CBB        80.0545   62.1574   43.4476 c0         1 CLA     -0.395200
      8 CBC        71.4412   56.6950   43.9766 a3         1 CLA     -0.037700
      9 CBD        75.0204   54.9482   36.1676 a1         1 CLA     -0.053900
     10 NB         77.4435   59.2366   40.5994 nm         1 CLA     -0.295700
     11 OBD        72.6971   54.3013   35.6733 o2         1 CLA     -0.494600
     12 CGA        79.1899   54.3716   34.0669 c4         1 CLA      0.827000
     13 CGD        75.6878   53.5821   36.3494 c4         1 CLA      0.655300
     14 ND         74.3749   56.9303   39.1334 nm         1 CLA     -0.291600
     15 CED        75.4669   51.3253   37.4469 a3         1 CLA      0.005400
     16 CHA        75.5625   55.8856   37.2030 cs         1 CLA     -0.123800
     17 CHB        79.1161   58.5361   39.0538 aa         1 CLA     -0.291900
     18 CHC        76.2590   60.1250   42.6057 aa         1 CLA     -0.090400
     19 CHD        72.5846   57.4126   40.7654 aa         1 CLA     -0.052000
     20 CMA        80.3751   56.0037   37.6890 a3         1 CLA     -0.230700
     21 CMB        80.7286   60.8216   40.1809 a3         1 CLA     -0.180800
     22 CMC        73.9668   60.2158   44.7439 a3         1 CLA     -0.134000
     23 CMD        70.9009   56.0145   38.4769 a3         1 CLA     -0.141100
     24 C1         79.9442   52.4707   35.3185 a2         1 CLA      0.023000
     25 C1A        76.8332   56.5088   37.2994 ac         1 CLA     -0.015100
     26 C1B        78.6919   59.3621   40.0755 cr         1 CLA      0.054700
     27 C1C        75.0371   59.4354   42.5435 cn         1 CLA     -0.005600
     28 C1D        73.0680   56.7993   39.5511 ap         1 CLA     -0.047300
     29 O1A        78.6721   53.6037   33.2946 o2         1 CLA     -0.610800
     30 O1D        76.7299   53.2334   35.8103 o2         1 CLA     -0.558200
     31 C2         80.5479   52.2579   36.7055 c8         1 CLA     -0.325100
     32 C2A        78.0139   56.0988   36.5136 a1         1 CLA      0.098600
     33 C2B        79.3772   60.4079   40.7757 cb         1 CLA      0.088500
     34 C2C        73.9930   59.3949   43.4810 cb         1 CLA      0.053700
     35 C2D        72.3019   56.0941   38.5391 cb         1 CLA      0.058900
     36 O2A        80.1062   53.9315   35.0180 o1         1 CLA     -0.437200
     37 O2D        74.9106   52.7464   37.2474 o1         1 CLA     -0.357600
     38 C3         81.4075   51.2736   36.9947 c5         1 CLA      0.031200
     39 C3A        79.1867   56.8356   37.1079 a1         1 CLA      0.166800
     40 C3B        78.6074   60.7418   41.9262 cb         1 CLA      0.035000
     41 C3C        72.9717   58.4930   43.0579 cb         1 CLA     -0.089900
     42 C3D        73.1904   55.5762   37.6558 cb         1 CLA     -0.035900
     43 C4         80.9875   49.9265   37.4355 a3         1 CLA     -0.053300
     44 C4A        78.4500   57.6681   38.2205 ac         1 CLA      0.001800
     45 C4B        77.3645   60.0624   41.7320 cn         1 CLA     -0.020900
     46 C4C        73.3618   58.1297   41.6810 cr         1 CLA     -0.044400
     47 C4D        74.4735   56.1642   38.0417 c6         1 CLA     -0.046000
     48 C5         82.8361   51.6826   37.0284 a2         1 CLA     -0.070400
     49 C6         83.1342   52.9338   37.8781 a2         1 CLA      0.043900
     50 C7         84.5514   52.8611   38.3897 a2         1 CLA     -0.150000
     51 C8         85.2217   54.1190   39.1443 a1         1 CLA      0.064200
     52 C9         86.7670   54.1062   38.8877 a3         1 CLA     -0.259300
     53 C10        84.9248   54.1210   40.6747 a2         1 CLA     -0.071900
     54 C11        83.4644   54.4273   41.1209 a2         1 CLA      0.014500
     55 C12        83.2223   55.5402   42.1021 a2         1 CLA     -0.112100
     56 C13        81.7657   55.8481   42.3593 a1         1 CLA      0.089200
     57 C14        81.1812   56.6421   41.2513 a3         1 CLA     -0.239100
     58 C15        81.3804   56.4829   43.7250 a2         1 CLA     -0.102200
     59 C16        81.9137   57.9747   43.8121 a2         1 CLA      0.023900
     60 C17        81.6447   58.5236   45.1736 a2         1 CLA     -0.105700
     61 C18        82.4009   59.7906   45.5804 a1         1 CLA      0.206800
     62 C19        81.6838   60.5969   46.7549 a3         1 CLA     -0.280100
     63 C20        83.8821   59.4826   46.0757 a3         1 CLA     -0.280100
     64 NC         74.6239   58.6520   41.4855 nx         1 CLA     -0.309200
     65 MG         75.8542   58.1528   39.7978 mg         1 CLA      0.895000
     66 HMD3       70.5696   56.2846   37.5163 dc         1 CLA      0.064300
     67 HMD2       70.5325   55.0634   38.7813 dc         1 CLA      0.064300
     68 HMD1       70.5830   56.8143   39.1088 dc         1 CLA      0.064300
     69 HMC3       74.6014   61.1663   44.7409 dc         1 CLA      0.052100
     70 HMC2       72.9163   60.5447   45.0046 dc         1 CLA      0.052100
     71 HMC1       74.2009   59.5280   45.5991 dc         1 CLA      0.052100
     72 HMB3       80.6424   61.3047   39.2346 dc         1 CLA      0.063600
     73 HMB2       81.2145   61.5302   40.8907 dc         1 CLA      0.063600
     74 HMB1       81.2971   59.9783   39.9690 dc         1 CLA      0.063600
     75 HMA3       81.1518   56.7070   38.0412 dc         1 CLA      0.058300
     76 HMA2       79.8762   55.6279   38.5558 dc         1 CLA      0.058300
     77 HMA1       80.8832   55.2411   37.0399 dc         1 CLA      0.058300
     78 HED3       75.4201   51.2484   38.5247 dc         1 CLA      0.079300
     79 HED2       74.9624   50.6061   36.9559 dc         1 CLA      0.079300
     80 HED1       76.4670   51.2920   37.1455 dc         1 CLA      0.079300
     81 HBC3       70.6128   56.4899   44.7391 dc         1 CLA      0.016300
     82 HBC2       71.2622   56.2885   43.0287 dc         1 CLA      0.016300
     83 HBC1       72.3044   56.1650   44.3353 dc         1 CLA      0.016300
     84 HBB2       80.0259   62.6326   44.4466 da         1 CLA      0.183000
     85 HBB1       80.9618   61.8061   43.0350 da         1 CLA      0.183000
     86 HBA2       78.9483   56.2298   33.1018 dc         1 CLA      0.029400
     87 HBA1       80.0080   56.1805   34.5088 dc         1 CLA      0.029400
     88 HAC2       71.8214   58.6190   44.8390 dc         1 CLA      0.029300
     89 HAC1       70.9435   58.4973   43.2988 dc         1 CLA      0.029300
     90 HAA2       76.9612   55.8450   34.4849 dc         1 CLA      0.028700
     91 HAA1       77.7590   57.3511   34.7300 dc         1 CLA      0.028700
     92 H203       84.4963   59.0888   45.2694 dc         1 CLA      0.065600
     93 H202       84.3699   60.4169   46.2875 dc         1 CLA      0.065600
     94 H201       83.8860   58.8710   46.9785 dc         1 CLA      0.065600
     95 H193       82.1145   61.5244   46.8089 dc         1 CLA      0.065600
     96 H192       80.6085   60.5131   46.5127 dc         1 CLA      0.065600
     97 H191       81.9788   60.1704   47.7202 dc         1 CLA      0.065600
     98 H172       80.5646   58.8057   45.0157 dc         1 CLA      0.027600
     99 H171       81.5290   57.7913   46.0221 dc         1 CLA      0.027600
    100 H162       83.0145   58.0047   43.6495 dc         1 CLA      0.002900
    101 H161       81.3728   58.6345   43.1693 dc         1 CLA      0.002900
    102 H152       80.3085   56.4764   43.8485 dc         1 CLA      0.029100
    103 H151       81.9508   55.8913   44.4027 dc         1 CLA      0.029100
    104 H143       81.1297   56.0104   40.3100 dc         1 CLA      0.063600
    105 H142       80.1295   56.9381   41.4745 dc         1 CLA      0.063600
    106 H141       81.7878   57.5403   41.0486 dc         1 CLA      0.063600
    107 H122       83.7511   55.3885   43.0300 dc         1 CLA      0.032500
    108 H121       83.5933   56.4994   41.6704 dc         1 CLA      0.032500
    109 H112       82.7889   54.6697   40.2638 dc         1 CLA      0.006600
    110 H111       83.1196   53.4012   41.5292 dc         1 CLA      0.006600
    111 H102       85.2706   53.1662   41.0663 dc         1 CLA      0.024100
    112 H101       85.6622   54.8858   41.0736 dc         1 CLA      0.024100
    113 HHD        71.5746   57.1281   41.1365 da         1 CLA      0.174300
    114 HHC        76.4307   60.7859   43.4679 da         1 CLA      0.136800
    115 HHB        80.1618   58.6877   38.7126 da         1 CLA      0.138300
    116 HBD        75.0177   55.2624   35.1427 dc         1 CLA      0.107700
    117 HAB        78.0156   62.0523   43.6041 da         1 CLA      0.155200
    118 H93        87.3437   53.2107   39.1609 dc         1 CLA      0.069500
    119 H92        86.8043   54.1380   37.7984 dc         1 CLA      0.069500
    120 H91        87.1578   54.9916   39.4245 dc         1 CLA      0.069500
    121 H8         84.8905   55.0397   38.6394 dc         1 CLA      0.029300
    122 H72        84.7220   52.0454   39.1206 dc         1 CLA      0.044400
    123 H71        85.1314   52.7627   37.4990 dc         1 CLA      0.044400
    124 H62        82.9091   53.8429   37.3119 dc         1 CLA      0.015600
    125 H61        82.4887   52.8312   38.6953 dc         1 CLA      0.015600
    126 H52        83.5504   50.9216   37.4017 dc         1 CLA      0.033200
    127 H51        83.1513   51.8274   36.0132 dc         1 CLA      0.033200
    128 H43        79.8821   50.0261   37.4420 dc         1 CLA      0.037000
    129 H42        81.3661   49.2299   36.7505 dc         1 CLA      0.037000
    130 H41        81.3101   49.6800   38.4765 dc         1 CLA      0.037000
    131 H3A        79.5661   57.5313   36.3329 dc         1 CLA      0.041100
    132 H2A        78.0645   54.9952   36.5996 dc         1 CLA      0.083100
    133 H2         80.0688   52.7974   37.5641 da         1 CLA      0.180900
    134 H18        82.3483   60.4743   44.7844 dc         1 CLA     -0.003900
    135 H13        81.2208   54.8623   42.5138 dc         1 CLA      0.019700
    136 H12        78.9104   52.1219   35.2468 dc         1 CLA      0.120400
    137 H11        80.5486   51.8193   34.6471 dc         1 CLA      0.120400
    138 C1         67.6350   60.6417   50.0198 Z1         2 LUT      0.509236
    139 C2         66.1692   60.3508   50.3313 Z2         2 LUT     -0.434695
    140 C3         65.3502   61.6980   50.7246 Z3         2 LUT      0.437453
    141 O3         65.2038   61.7807   52.1497 S1         2 LUT     -0.547129
    142 C4         65.8610   62.9521   50.0169 Z4         2 LUT     -0.468603
    143 C5         66.7558   62.6820   48.7434 Z5         2 LUT      0.279246
    144 C6         67.5812   61.5639   48.7267 Z6         2 LUT     -0.305473
    145 C7         68.0106   61.0191   47.4548 Z7         2 LUT      0.069402
    146 C8         68.9298   61.5828   46.6670 Z8         2 LUT     -0.191631
    147 C9         69.4472   61.3666   45.2931 Z9         2 LUT      0.196698
    148 C10        70.4335   62.1750   44.8118 Y1         2 LUT     -0.208611
    149 C11        71.1282   62.1809   43.6261 Y2         2 LUT      0.030784
    150 C12        72.1893   62.9928   43.3761 Y3         2 LUT     -0.220316
    151 C13        73.0692   62.9062   42.2317 Y4         2 LUT      0.215937
    152 C14        74.2492   63.6292   42.3448 Y5         2 LUT     -0.185793
    153 C15        75.3327   63.7241   41.4456 Y6         2 LUT     -0.057835
    154 C16        68.2683   59.2561   49.8140 Y7         2 LUT     -0.405615
    155 C17        68.6090   61.4667   51.0107 Y7         2 LUT     -0.405615
    156 C18        66.1191   63.4170   47.5949 Y9         2 LUT     -0.369639
    157 C19        68.7345   60.3374   44.4996 W1         2 LUT     -0.333362
    158 C20        72.6972   62.1004   41.0108 W2         2 LUT     -0.323439
    159 C21        86.8646   64.3452   35.6413 Z1         2 LUT      0.406104
    160 C22        87.8155   63.8276   34.4927 Z2         2 LUT     -0.404965
    161 C23        88.0355   64.7037   33.3006 Z3         2 LUT      0.391255
    162 O23        88.9030   63.9830   32.4199 S1         2 LUT     -0.528210
    163 C24        86.7224   65.3045   32.8423 W6         2 LUT     -0.258361
    164 C25        85.5663   65.4131   33.5370 Z5         2 LUT      0.133546
    165 C26        85.4768   64.8701   35.0187 W8         2 LUT     -0.147008
    166 C27        84.6052   65.7101   35.9170 Z7         2 LUT      0.023843
    167 C28        83.7074   64.9833   36.5899 Z8         2 LUT     -0.216987
    168 C29        82.8375   65.4574   37.5970 Z9         2 LUT      0.206524
    169 C30        81.7983   64.7056   38.1255 Y1         2 LUT     -0.215556
    170 C31        80.8384   65.0838   39.0943 Y2         2 LUT      0.025142
    171 C32        79.7713   64.3956   39.5886 Y3         2 LUT     -0.212209
    172 C33        78.8023   64.7130   40.5760 Y4         2 LUT      0.240937
    173 C34        77.6062   64.0368   40.7160 Y5         2 LUT     -0.218862
    174 C35        76.5391   64.2369   41.7032 Y6         2 LUT     -0.023547
    175 C36        87.6797   65.3860   36.4266 Y7         2 LUT     -0.393485
    176 C37        86.6491   63.1241   36.6807 Y7         2 LUT     -0.393485
    177 C38        84.3516   66.0690   32.9090 Y9         2 LUT     -0.387526
    178 C39        83.1067   66.9013   38.0702 W1         2 LUT     -0.322618
    179 C40        79.0640   65.9915   41.3562 W2         2 LUT     -0.358472
    180 H403       79.0889   66.9393   40.7945 R7         2 LUT      0.097720
    181 H402       78.4490   66.1258   42.2524 R7         2 LUT      0.097720
    182 H401       80.0706   65.8123   41.6778 R7         2 LUT      0.097720
    183 H393       82.4821   67.3189   38.8357 R4         2 LUT      0.082505
    184 H392       84.0912   66.9139   38.5000 R4         2 LUT      0.082505
    185 H391       82.9618   67.5212   37.1313 R4         2 LUT      0.082505
    186 H383       84.6033   66.3781   31.8661 R1         2 LUT      0.104030
    187 H382       83.4792   65.4430   32.8482 R1         2 LUT      0.104030
    188 H381       84.1679   67.0186   33.3240 R1         2 LUT      0.104030
    189 H373       86.1964   62.2374   36.2206 T4         2 LUT      0.089537
    190 H372       87.5898   62.7928   37.1118 T4         2 LUT      0.089537
    191 H371       86.0017   63.3636   37.5271 T4         2 LUT      0.089537
    192 H363       87.6586   65.2398   37.5490 T4         2 LUT      0.089537
    193 H362       88.6682   65.3549   36.1375 T4         2 LUT      0.089537
    194 H361       87.4294   66.4082   36.1969 T4         2 LUT      0.089537
    195 H222       88.7928   63.5130   34.7895 U2         2 LUT      0.127376
    196 H221       87.3641   62.9690   34.0368 U2         2 LUT      0.127376
    197 H203       71.5770   62.0374   40.9573 R7         2 LUT      0.087068
    198 H202       72.9789   62.6643   40.1336 R7         2 LUT      0.087068
    199 H201       73.1876   61.1548   41.0041 R7         2 LUT      0.087068
    200 H193       68.9705   59.4103   44.9729 R4         2 LUT      0.089716
    201 H192       67.6336   60.5526   44.4995 R4         2 LUT      0.089716
    202 H191       68.9834   60.2450   43.4206 R4         2 LUT      0.089716
    203 H183       66.0175   64.5461   47.6322 R1         2 LUT      0.094572
    204 H182       66.7115   63.1882   46.7244 R1         2 LUT      0.094572
    205 H181       65.1639   63.0333   47.2906 R1         2 LUT      0.094572
    206 H173       68.1655   62.4599   51.2311 T4         2 LUT      0.093752
    207 H172       68.8608   60.8745   51.8485 T4         2 LUT      0.093752
    208 H171       69.5789   61.8172   50.5464 T4         2 LUT      0.093752
    209 H163       68.3028   58.6081   50.6234 T4         2 LUT      0.093752
    210 H162       67.7818   58.6878   48.9573 T4         2 LUT      0.093752
    211 H161       69.3286   59.3856   49.6180 T4         2 LUT      0.093752
    212 HO3        65.9161   62.2336   52.6274 Q1         2 LUT      0.300121
    213 H8         69.2650   62.5305   47.0260 U7         2 LUT      0.080784
    214 H7         67.4444   60.1600   47.1901 U6         2 LUT      0.042190
    215 H42        65.0515   63.5300   49.5510 U5         2 LUT      0.145166
    216 H41        66.3072   63.7417   50.6898 U5         2 LUT      0.145166
    217 H35        76.7353   64.7608   42.6646 T3         2 LUT      0.077919
    218 H34        77.4339   63.2994   40.0286 T2         2 LUT      0.073626
    219 H32        79.5207   63.4705   39.1596 T1         2 LUT      0.092510
    220 H31        81.1175   66.0929   39.4714 U9         2 LUT      0.070048
    221 H30        81.5403   63.7428   37.6838 U8         2 LUT      0.085442
    222 H3         64.3939   61.5335   50.3339 U3         2 LUT     -0.031596
    223 H28        83.6695   63.9300   36.3871 U7         2 LUT      0.084728
    224 H27        84.8215   66.7661   36.0352 U6         2 LUT      0.087291
    225 H26        84.9141   63.9528   34.7957 Q6         2 LUT      0.075325
    226 H24        86.5982   65.9334   31.9513 Q5         2 LUT      0.094482
    227 H23        88.6878   65.5211   33.6146 U3         2 LUT     -0.024869
    228 H22        65.7249   59.9027   49.5052 U2         2 LUT      0.127376
    229 H21        66.0615   59.5871   51.0746 U2         2 LUT      0.127376
    230 H15        75.2308   63.2360   40.4267 T3         2 LUT      0.093200
    231 H14        74.4845   64.1430   43.2525 T2         2 LUT      0.068865
    232 H12        72.4671   63.7354   44.0978 T1         2 LUT      0.095507
    233 H11        70.9879   61.3451   42.8625 U9         2 LUT      0.068930
    234 H10        70.6848   62.9765   45.4883 U8         2 LUT      0.083911
    235 H1         88.3750   63.6922   31.7030 Q1         2 LUT      0.297311
@<TRIPOS>BOND
    1     6     1 1
    2     7     2 1
    3     8     3 1
    4     9     4 1
    5    11     4 1
    6    12     6 1
    7    13     9 1
    8    16     9 1
    9    25     5 1
   10    25    16 1
   11    26    10 1
   12    26    17 1
   13    27    18 1
   14    28    14 1
   15    28    19 1
   16    29    12 1
   17    30    13 1
   18    31    24 1
   19    32     1 1
   20    32    25 1
   21    33    21 1
   22    33    26 1
   23    34    22 1
   24    34    27 1
   25    35    23 1
   26    35    28 1
   27    36    12 1
   28    36    24 1
   29    37    13 1
   30    37    15 1
   31    38    31 1
   32    39    20 1
   33    39    32 1
   34    40     2 1
   35    40    33 1
   36    41     3 1
   37    41    34 1
   38    42     4 1
   39    42    35 1
   40    43    38 1
   41    44     5 1
   42    44    17 1
   43    44    39 1
   44    45    10 1
   45    45    18 1
   46    45    40 1
   47    46    19 1
   48    46    41 1
   49    47    14 1
   50    47    16 1
   51    47    42 1
   52    48    38 1
   53    49    48 1
   54    50    49 1
   55    51    50 1
   56    52    51 1
   57    53    51 1
   58    54    53 1
   59    55    54 1
   60    56    55 1
   61    57    56 1
   62    58    56 1
   63    59    58 1
   64    60    59 1
   65    61    60 1
   66    62    61 1
   67    63    61 1
   68    64    27 1
   69    64    46 1
   70    65     5 1
   71    65    10 1
   72    65    64 1
   73    65    14 1
   74    66    23 1
   75    67    23 1
   76    68    23 1
   77    69    22 1
   78    70    22 1
   79    71    22 1
   80    72    21 1
   81    73    21 1
   82    74    21 1
   83    75    20 1
   84    76    20 1
   85    77    20 1
   86    78    15 1
   87    79    15 1
   88    80    15 1
   89    81     8 1
   90    82     8 1
   91    83     8 1
   92    84     7 1
   93    85     7 1
   94    86     6 1
   95    87     6 1
   96    88     3 1
   97    89     3 1
   98    90     1 1
   99    91     1 1
  100    92    63 1
  101    93    63 1
  102    94    63 1
  103    95    62 1
  104    96    62 1
  105    97    62 1
  106    98    60 1
  107    99    60 1
  108   100    59 1
  109   101    59 1
  110   102    58 1
  111   103    58 1
  112   104    57 1
  113   105    57 1
  114   106    57 1
  115   107    55 1
  116   108    55 1
  117   109    54 1
  118   110    54 1
  119   111    53 1
  120   112    53 1
  121   113    19 1
  122   114    18 1
  123   115    17 1
  124   116     9 1
  125   117     2 1
  126   118    52 1
  127   119    52 1
  128   120    52 1
  129   121    51 1
  130   122    50 1
  131   123    50 1
  132   124    49 1
  133   125    49 1
  134   126    48 1
  135   127    48 1
  136   128    43 1
  137   129    43 1
  138   130    43 1
  139   131    39 1
  140   132    32 1
  141   133    31 1
  142   134    61 1
  143   135    56 1
  144   136    24 1
  145   137    24 1
  146   139   138 1
  147   140   139 1
  148   141   140 1
  149   142   140 1
  150   143   142 1
  151   144   138 1
  152   144   143 1
  153   145   144 1
  154   146   145 1
  155   147   146 1
  156   148   147 1
  157   149   148 1
  158   150   149 1
  159   151   150 1
  160   152   151 1
  161   153   152 1
  162   154   138 1
  163   155   138 1
  164   156   143 1
  165   157   147 1
  166   158   151 1
  167   160   159 1
  168   161   160 1
  169   162   161 1
  170   163   161 1
  171   164   163 1
  172   165   159 1
  173   165   164 1
  174   166   165 1
  175   167   166 1
  176   168   167 1
  177   169   168 1
  178   170   169 1
  179   171   170 1
  180   172   171 1
  181   173   172 1
  182   174   153 1
  183   174   173 1
  184   175   159 1
  185   176   159 1
  186   177   164 1
  187   178   168 1
  188   179   172 1
  189   180   179 1
  190   181   179 1
  191   182   179 1
  192   183   178 1
  193   184   178 1
  194   185   178 1
  195   186   177 1
  196   187   177 1
  197   188   177 1
  198   189   176 1
  199   190   176 1
  200   191   176 1
  201   192   175 1
  202   193   175 1
  203   194   175 1
  204   195   160 1
  205   196   160 1
  206   197   158 1
  207   198   158 1
  208   199   158 1
  209   200   157 1
  210   201   157 1
  211   202   157 1
  212   203   156 1
  213   204   156 1
  214   205   156 1
  215   206   155 1
  216   207   155 1
  217   208   155 1
  218   209   154 1
  219   210   154 1
  220   211   154 1
  221   212   141 1
  222   213   146 1
  223   214   145 1
  224   215   142 1
  225   216   142 1
  226   217   174 1
  227   218   173 1
  228   219   171 1
  229   220   170 1
  230   221   169 1
  231   222   140 1
  232   223   167 1
  233   224   166 1
  234   225   165 1
  235   226   163 1
  236   227   161 1
  237   228   139 1
  238   229   139 1
  239   230   153 1
  240   231   152 1
  241   232   150 1
  242   233   149 1
  243   234   148 1
  244   235   162 1
  245   65    153 1
  246   65    174 1
@<TRIPOS>SUBSTRUCTURE
      1 CLA               1 ****               0 ****  **** 
      2 LUT             138 ****               0 ****  **** 
