@<TRIPOS>MOLECULE
Cpptraj generated mol2 file.
  235   246     2     0     0
SMALL
USER_CHARGES


@<TRIPOS>ATOM
      1 CAA        78.8562   58.4514   34.4829 a2         1 CLA     -0.055900
      2 CAB        79.7037   62.6542   43.2346 c8         1 CLA     -0.148500
      3 CAC        72.6562   58.6992   43.5832 a2         1 CLA     -0.012600
      4 CAD        74.5199   56.0686   35.9242 ck         1 CLA      0.398800
      5 NA         78.0367   59.0671   37.8282 ns         1 CLA     -0.225500
      6 CBA        80.0396   58.1535   33.5271 a2         1 CLA     -0.135000
      7 CBB        80.8820   62.9797   43.8258 c0         1 CLA     -0.395200
      8 CBC        72.4691   57.1573   43.5019 a3         1 CLA     -0.037700
      9 CBD        76.0206   56.4906   35.5812 a1         1 CLA     -0.053900
     10 NB         78.2465   60.6974   40.3240 nm         1 CLA     -0.295700
     11 OBD        73.7302   55.3179   35.3433 o2         1 CLA     -0.494600
     12 CGA        80.4340   56.6521   33.1887 c4         1 CLA      0.827000
     13 CGD        76.8403   55.1691   35.7254 c4         1 CLA      0.655300
     14 ND         75.1588   58.2617   38.6448 nm         1 CLA     -0.291600
     15 CED        77.2739   53.0759   36.9241 a3         1 CLA      0.005400
     16 CHA        76.5058   57.5296   36.6597 cs         1 CLA     -0.123800
     17 CHB        80.0761   60.2137   38.7593 aa         1 CLA     -0.291900
     18 CHC        77.1029   61.0296   42.4691 aa         1 CLA     -0.090400
     19 CHD        73.5156   58.3108   40.4641 aa         1 CLA     -0.052000
     20 CMA        81.3383   57.9300   37.1678 a3         1 CLA     -0.230700
     21 CMB        81.8658   61.8443   40.6720 a3         1 CLA     -0.180800
     22 CMC        75.0196   60.4916   44.8716 a3         1 CLA     -0.134000
     23 CMD        71.9209   56.3681   38.3629 a3         1 CLA     -0.141100
     24 C1         81.3363   54.5564   33.9973 a2         1 CLA      0.023000
     25 C1A        77.7686   58.1807   36.8259 ac         1 CLA     -0.015100
     26 C1B        79.5841   60.7925   39.9265 cr         1 CLA      0.054700
     27 C1C        75.8304   60.3305   42.3441 cn         1 CLA     -0.005600
     28 C1D        73.8950   57.8765   39.1407 ap         1 CLA     -0.047300
     29 O1A        80.1664   56.0373   32.1269 o2         1 CLA     -0.610800
     30 O1D        77.7840   54.8863   35.0021 o2         1 CLA     -0.558200
     31 C2         82.1815   54.1869   35.1911 c8         1 CLA     -0.325100
     32 C2A        79.0347   57.9988   35.9700 a1         1 CLA      0.098600
     33 C2B        80.3570   61.4844   40.9562 cb         1 CLA      0.088500
     34 C2C        74.9105   60.0491   43.4290 cb         1 CLA      0.053700
     35 C2D        73.2523   56.9722   38.2121 cb         1 CLA      0.058900
     36 O2A        81.0641   56.0178   34.2022 o1         1 CLA     -0.437200
     37 O2D        76.3495   54.2465   36.6111 o1         1 CLA     -0.357600
     38 C3         83.3973   53.6184   35.1376 c5         1 CLA      0.031200
     39 C3A        80.1733   58.7632   36.6736 a1         1 CLA      0.166800
     40 C3B        79.4977   61.8897   41.9539 cb         1 CLA      0.035000
     41 C3C        73.8594   59.2896   42.8553 cb         1 CLA     -0.089900
     42 C3D        74.2499   56.7666   37.1621 cb         1 CLA     -0.035900
     43 C4         83.5074   52.1257   35.2029 a3         1 CLA     -0.053300
     44 C4A        79.3823   59.4562   37.8012 ac         1 CLA      0.001800
     45 C4B        78.2226   61.2162   41.6224 cn         1 CLA     -0.020900
     46 C4C        74.2622   59.0241   41.4825 cr         1 CLA     -0.044400
     47 C4D        75.3861   57.6115   37.5386 c6         1 CLA     -0.046000
     48 C5         84.5545   54.5087   34.7317 a2         1 CLA     -0.070400
     49 C6         84.8510   55.7994   35.5222 a2         1 CLA      0.043900
     50 C7         85.0249   55.4773   37.0334 a2         1 CLA     -0.150000
     51 C8         85.5169   56.5836   37.9979 a1         1 CLA      0.064200
     52 C9         87.0133   57.0284   37.6780 a3         1 CLA     -0.259300
     53 C10        85.1368   56.1681   39.4501 a2         1 CLA     -0.071900
     54 C11        85.2490   57.3337   40.4231 a2         1 CLA      0.014500
     55 C12        85.3538   56.8320   41.7835 a2         1 CLA     -0.112100
     56 C13        85.5232   57.9201   42.9608 a1         1 CLA      0.089200
     57 C14        86.8689   58.6485   42.6662 a3         1 CLA     -0.239100
     58 C15        85.3583   57.4198   44.4072 a2         1 CLA     -0.102200
     59 C16        85.2823   58.3032   45.6315 a2         1 CLA      0.023900
     60 C17        85.5320   57.5007   46.8879 a2         1 CLA     -0.105700
     61 C18        85.2700   58.3694   48.1350 a1         1 CLA      0.206800
     62 C19        83.8238   58.7775   48.3552 a3         1 CLA     -0.280100
     63 C20        85.8885   57.6910   49.4173 a3         1 CLA     -0.280100
     64 NC         75.4371   59.7322   41.2211 nx         1 CLA     -0.309200
     65 MG         76.6659   59.6690   39.3682 mg         1 CLA      0.895000
     66 HMD3       71.1352   57.0758   38.1259 dc         1 CLA      0.064300
     67 HMD2       71.8518   55.4680   37.8179 dc         1 CLA      0.064300
     68 HMD1       71.7756   56.0659   39.4444 dc         1 CLA      0.064300
     69 HMC3       75.3619   61.5579   44.8097 dc         1 CLA      0.052100
     70 HMC2       74.1079   60.5236   45.4480 dc         1 CLA      0.052100
     71 HMC1       75.8457   59.9901   45.3638 dc         1 CLA      0.052100
     72 HMB3       82.0348   61.8310   39.5765 dc         1 CLA      0.063600
     73 HMB2       82.1026   62.9187   40.8812 dc         1 CLA      0.063600
     74 HMB1       82.4363   61.1490   41.1622 dc         1 CLA      0.063600
     75 HMA3       81.8082   57.2867   36.4408 dc         1 CLA      0.058300
     76 HMA2       82.1113   58.5741   37.5132 dc         1 CLA      0.058300
     77 HMA1       81.0599   57.1847   37.8690 dc         1 CLA      0.058300
     78 HED3       76.8895   52.5373   37.7796 dc         1 CLA      0.079300
     79 HED2       77.4778   52.4105   36.0536 dc         1 CLA      0.079300
     80 HED1       78.2971   53.2882   37.2118 dc         1 CLA      0.079300
     81 HBC3       73.2867   56.6422   43.9118 dc         1 CLA      0.016300
     82 HBC2       71.7063   56.9602   44.2264 dc         1 CLA      0.016300
     83 HBC1       72.1916   56.7916   42.5484 dc         1 CLA      0.016300
     84 HBB2       80.8255   63.7687   44.5447 da         1 CLA      0.183000
     85 HBB1       81.8267   62.6531   43.4187 da         1 CLA      0.183000
     86 HBA2       79.9000   58.5746   32.5167 dc         1 CLA      0.029400
     87 HBA1       80.8726   58.7070   33.9142 dc         1 CLA      0.029400
     88 HAC2       72.6891   58.9396   44.6759 dc         1 CLA      0.029300
     89 HAC1       71.7306   59.1863   43.2873 dc         1 CLA      0.029300
     90 HAA2       78.0564   57.7803   34.2377 dc         1 CLA      0.028700
     91 HAA1       78.4946   59.5294   34.4214 dc         1 CLA      0.028700
     92 H203       86.8252   57.2498   49.1215 dc         1 CLA      0.065600
     93 H202       86.0802   58.4396   50.1949 dc         1 CLA      0.065600
     94 H201       85.3164   56.8530   49.7829 dc         1 CLA      0.065600
     95 H193       83.1265   57.9383   48.5842 dc         1 CLA      0.065600
     96 H192       83.9068   59.5409   49.0983 dc         1 CLA      0.065600
     97 H191       83.5004   59.3872   47.4890 dc         1 CLA      0.065600
     98 H172       84.9620   56.5925   46.8790 dc         1 CLA      0.027600
     99 H171       86.5799   57.2615   46.8958 dc         1 CLA      0.027600
    100 H162       85.9458   59.1753   45.6704 dc         1 CLA      0.002900
    101 H161       84.3410   58.7527   45.5501 dc         1 CLA      0.002900
    102 H152       84.4472   56.8181   44.4800 dc         1 CLA      0.029100
    103 H151       86.1089   56.6323   44.6433 dc         1 CLA      0.029100
    104 H143       86.5970   59.4579   41.9568 dc         1 CLA      0.063600
    105 H142       87.3351   59.0592   43.6617 dc         1 CLA      0.063600
    106 H141       87.5766   58.0119   42.1643 dc         1 CLA      0.063600
    107 H122       84.3200   56.4109   41.8721 dc         1 CLA      0.032500
    108 H121       86.0318   55.9836   41.8888 dc         1 CLA      0.032500
    109 H112       86.1795   57.8259   40.1875 dc         1 CLA      0.006600
    110 H111       84.5360   58.0933   40.3332 dc         1 CLA      0.006600
    111 H102       84.1112   55.7868   39.5682 dc         1 CLA      0.024100
    112 H101       85.7525   55.3576   39.7650 dc         1 CLA      0.024100
    113 HHD        72.5703   57.9365   40.8667 da         1 CLA      0.174300
    114 HHC        77.0991   61.5380   43.4252 da         1 CLA      0.136800
    115 HHB        81.1566   60.2723   38.5774 da         1 CLA      0.138300
    116 HBD        75.8888   56.8030   34.5376 dc         1 CLA      0.107700
    117 HAB        78.7867   63.2080   43.5246 da         1 CLA      0.155200
    118 H93        87.1877   57.3608   36.5990 dc         1 CLA      0.069500
    119 H92        87.1168   57.9177   38.1663 dc         1 CLA      0.069500
    120 H91        87.7233   56.3244   37.9457 dc         1 CLA      0.069500
    121 H8         84.9245   57.4729   37.7872 dc         1 CLA      0.029300
    122 H72        84.0429   55.1086   37.3498 dc         1 CLA      0.044400
    123 H71        85.6724   54.5325   37.1551 dc         1 CLA      0.044400
    124 H62        85.7881   56.1719   35.0222 dc         1 CLA      0.015600
    125 H61        83.9933   56.5038   35.3671 dc         1 CLA      0.015600
    126 H52        85.4144   53.9265   34.9042 dc         1 CLA      0.033200
    127 H51        84.4948   54.6215   33.6830 dc         1 CLA      0.033200
    128 H43        83.9130   51.6065   34.3424 dc         1 CLA      0.037000
    129 H42        84.1279   51.9387   36.0908 dc         1 CLA      0.037000
    130 H41        82.5032   51.6320   35.3502 dc         1 CLA      0.037000
    131 H3A        80.5926   59.4837   36.0218 dc         1 CLA      0.041100
    132 H2A        79.3458   56.9337   35.8692 dc         1 CLA      0.083100
    133 H2         81.7684   54.5692   36.1858 da         1 CLA      0.180900
    134 H18        85.7409   59.3458   47.9665 dc         1 CLA     -0.003900
    135 H13        84.6720   58.6099   42.7391 dc         1 CLA      0.019700
    136 H12        80.4167   53.9544   33.8244 dc         1 CLA      0.120400
    137 H11        81.9612   54.3897   33.1197 dc         1 CLA      0.120400
    138 C1         69.1947   61.8832   50.4228 Z1         2 LUT      0.509236
    139 C2         67.9417   61.5844   51.3545 Z2         2 LUT     -0.434695
    140 C3         67.0624   62.7393   51.7921 Z3         2 LUT      0.437453
    141 O3         67.2710   63.0809   53.1458 S1         2 LUT     -0.547129
    142 C4         67.4221   64.0042   51.0554 Z4         2 LUT     -0.468603
    143 C5         67.9207   63.8534   49.6635 Z5         2 LUT      0.279246
    144 C6         68.8479   62.8976   49.3565 Z6         2 LUT     -0.305473
    145 C7         68.9923   62.4332   47.9454 Z7         2 LUT      0.069402
    146 C8         70.0890   62.7068   47.2037 Z8         2 LUT     -0.191631
    147 C9         70.2564   62.2698   45.8168 Z9         2 LUT      0.196698
    148 C10        71.4002   62.9105   45.1946 Y1         2 LUT     -0.208611
    149 C11        71.9565   62.7457   43.8495 Y2         2 LUT      0.030784
    150 C12        73.0838   63.3761   43.4055 Y3         2 LUT     -0.220316
    151 C13        73.8059   63.3315   42.1698 Y4         2 LUT      0.215937
    152 C14        75.0726   63.8793   42.1694 Y5         2 LUT     -0.185793
    153 C15        76.0032   63.8464   41.0628 Y6         2 LUT     -0.057835
    154 C16        69.6191   60.4957   49.9945 Y7         2 LUT     -0.405615
    155 C17        70.1601   62.6276   51.3753 Y7         2 LUT     -0.405615
    156 C18        67.0529   64.5938   48.6890 Y9         2 LUT     -0.369639
    157 C19        69.3171   61.2003   45.2728 W1         2 LUT     -0.333362
    158 C20        73.3573   62.4793   40.9338 W2         2 LUT     -0.323439
    159 C21        87.4831   65.4381   35.0612 Z1         2 LUT      0.406104
    160 C22        88.0061   64.9508   33.6528 Z2         2 LUT     -0.404965
    161 C23        87.9276   66.0695   32.6147 Z3         2 LUT      0.391255
    162 O23        88.0614   65.5129   31.3126 S1         2 LUT     -0.528210
    163 C24        86.6844   66.8713   32.6531 W6         2 LUT     -0.258361
    164 C25        85.8295   66.9393   33.6752 Z5         2 LUT      0.133546
    165 C26        86.0121   65.9612   34.8866 W8         2 LUT     -0.147008
    166 C27        85.3104   66.5414   36.1549 Z7         2 LUT      0.023843
    167 C28        83.9676   66.2232   36.4755 Z8         2 LUT     -0.216987
    168 C29        83.3769   66.4636   37.7091 Z9         2 LUT      0.206524
    169 C30        82.2618   65.6628   38.0237 Y1         2 LUT     -0.215556
    170 C31        81.5713   65.6761   39.2812 Y2         2 LUT      0.025142
    171 C32        80.4046   65.0760   39.3970 Y3         2 LUT     -0.212209
    172 C33        79.4576   65.1457   40.4550 Y4         2 LUT      0.240937
    173 C34        78.2370   64.5552   40.2951 Y5         2 LUT     -0.218862
    174 C35        77.2192   64.4963   41.1558 Y6         2 LUT     -0.023547
    175 C36        88.6348   66.4009   35.6221 Y7         2 LUT     -0.393485
    176 C37        87.5663   64.2467   35.9750 Y7         2 LUT     -0.393485
    177 C38        84.5650   67.8351   33.5349 Y9         2 LUT     -0.387526
    178 C39        84.0505   67.4030   38.6984 W1         2 LUT     -0.322618
    179 C40        79.9931   65.8967   41.7310 W2         2 LUT     -0.358472
    180 H403       79.3401   65.6567   42.5865 R7         2 LUT      0.097720
    181 H402       80.9726   65.5192   42.0449 R7         2 LUT      0.097720
    182 H401       80.0505   66.9685   41.6413 R7         2 LUT      0.097720
    183 H393       84.2043   68.4239   38.3274 R4         2 LUT      0.082505
    184 H392       83.5252   67.6370   39.6391 R4         2 LUT      0.082505
    185 H391       85.0578   67.1595   38.9444 R4         2 LUT      0.082505
    186 H383       84.6755   68.6341   32.7936 R1         2 LUT      0.104030
    187 H382       83.7609   67.3467   33.1280 R1         2 LUT      0.104030
    188 H381       84.2997   68.3617   34.4984 R1         2 LUT      0.104030
    189 H373       86.9108   63.5126   35.5422 T4         2 LUT      0.089537
    190 H372       88.5728   63.7704   35.8774 T4         2 LUT      0.089537
    191 H371       87.3913   64.5567   37.0214 T4         2 LUT      0.089537
    192 H363       89.5878   66.0091   35.5094 T4         2 LUT      0.089537
    193 H362       88.6876   67.3696   35.2205 T4         2 LUT      0.089537
    194 H361       88.6354   66.5171   36.6874 T4         2 LUT      0.089537
    195 H222       89.0570   64.7154   33.6515 U2         2 LUT      0.127376
    196 H221       87.4150   64.1402   33.2351 U2         2 LUT      0.127376
    197 H203       72.9412   61.5175   41.2113 R7         2 LUT      0.087068
    198 H202       72.4552   62.8537   40.3431 R7         2 LUT      0.087068
    199 H201       74.1798   62.2309   40.2495 R7         2 LUT      0.087068
    200 H193       69.8427   60.4808   44.6669 R4         2 LUT      0.089716
    201 H192       68.7745   60.5349   45.9235 R4         2 LUT      0.089716
    202 H191       68.5749   61.7159   44.6529 R4         2 LUT      0.089716
    203 H183       66.2544   63.9822   48.1555 R1         2 LUT      0.094572
    204 H182       66.5632   65.3832   49.2462 R1         2 LUT      0.094572
    205 H181       67.7174   65.0305   47.9684 R1         2 LUT      0.094572
    206 H173       69.9618   63.7195   51.5301 T4         2 LUT      0.093752
    207 H172       69.9955   62.1345   52.3285 T4         2 LUT      0.093752
    208 H171       71.2231   62.5303   51.1073 T4         2 LUT      0.093752
    209 H163       69.9104   59.8297   50.7966 T4         2 LUT      0.093752
    210 H162       68.8588   59.9528   49.3882 T4         2 LUT      0.093752
    211 H161       70.5528   60.5755   49.4397 T4         2 LUT      0.093752
    212 HO3        66.9787   62.4833   53.7841 Q1         2 LUT      0.300121
    213 H8         70.8861   63.2046   47.7541 U7         2 LUT      0.080784
    214 H7         68.2708   61.7057   47.6284 U6         2 LUT      0.042190
    215 H42        66.5073   64.4836   51.2058 U5         2 LUT      0.145166
    216 H41        68.1272   64.6792   51.5462 U5         2 LUT      0.145166
    217 H35        77.5064   65.0313   42.0677 T3         2 LUT      0.077919
    218 H34        78.0848   64.1019   39.2755 T2         2 LUT      0.073626
    219 H32        80.1773   64.5839   38.4103 T1         2 LUT      0.092510
    220 H31        81.8412   66.2532   40.1566 U9         2 LUT      0.070048
    221 H30        81.8437   64.9439   37.3601 U8         2 LUT      0.085442
    222 H3         66.0137   62.4877   51.5335 U3         2 LUT     -0.031596
    223 H28        83.3721   65.6587   35.7234 U7         2 LUT      0.084728
    224 H27        85.9967   66.9832   36.8481 U6         2 LUT      0.087291
    225 H26        85.3757   65.1111   34.6194 Q6         2 LUT      0.075325
    226 H24        86.5442   67.5585   31.7796 Q5         2 LUT      0.094482
    227 H23        88.7631   66.7249   32.9225 U3         2 LUT     -0.024869
    228 H22        67.1844   60.8644   50.9322 U2         2 LUT      0.127376
    229 H21        68.2842   61.0567   52.2747 U2         2 LUT      0.127376
    230 H15        75.8656   63.4486   40.1290 T3         2 LUT      0.093200
    231 H14        75.4805   64.2450   43.1783 T2         2 LUT      0.068865
    232 H12        73.6753   64.0247   44.1644 T1         2 LUT      0.095507
    233 H11        71.4701   62.1344   43.1639 U9         2 LUT      0.068930
    234 H10        72.0135   63.5745   45.8734 U8         2 LUT      0.083911
    235 H1         88.9505   65.2894   31.0387 Q1         2 LUT      0.297311
@<TRIPOS>BOND
    1     6     1 1
    2     7     2 1
    3     8     3 1
    4     9     4 1
    5    11     4 1
    6    12     6 1
    7    13     9 1
    8    16     9 1
    9    25     5 1
   10    25    16 1
   11    26    10 1
   12    26    17 1
   13    27    18 1
   14    28    14 1
   15    28    19 1
   16    29    12 1
   17    30    13 1
   18    31    24 1
   19    32     1 1
   20    32    25 1
   21    33    21 1
   22    33    26 1
   23    34    22 1
   24    34    27 1
   25    35    23 1
   26    35    28 1
   27    36    12 1
   28    36    24 1
   29    37    13 1
   30    37    15 1
   31    38    31 1
   32    39    20 1
   33    39    32 1
   34    40     2 1
   35    40    33 1
   36    41     3 1
   37    41    34 1
   38    42     4 1
   39    42    35 1
   40    43    38 1
   41    44     5 1
   42    44    17 1
   43    44    39 1
   44    45    10 1
   45    45    18 1
   46    45    40 1
   47    46    19 1
   48    46    41 1
   49    47    14 1
   50    47    16 1
   51    47    42 1
   52    48    38 1
   53    49    48 1
   54    50    49 1
   55    51    50 1
   56    52    51 1
   57    53    51 1
   58    54    53 1
   59    55    54 1
   60    56    55 1
   61    57    56 1
   62    58    56 1
   63    59    58 1
   64    60    59 1
   65    61    60 1
   66    62    61 1
   67    63    61 1
   68    64    27 1
   69    64    46 1
   70    65     5 1
   71    65    10 1
   72    65    64 1
   73    65    14 1
   74    66    23 1
   75    67    23 1
   76    68    23 1
   77    69    22 1
   78    70    22 1
   79    71    22 1
   80    72    21 1
   81    73    21 1
   82    74    21 1
   83    75    20 1
   84    76    20 1
   85    77    20 1
   86    78    15 1
   87    79    15 1
   88    80    15 1
   89    81     8 1
   90    82     8 1
   91    83     8 1
   92    84     7 1
   93    85     7 1
   94    86     6 1
   95    87     6 1
   96    88     3 1
   97    89     3 1
   98    90     1 1
   99    91     1 1
  100    92    63 1
  101    93    63 1
  102    94    63 1
  103    95    62 1
  104    96    62 1
  105    97    62 1
  106    98    60 1
  107    99    60 1
  108   100    59 1
  109   101    59 1
  110   102    58 1
  111   103    58 1
  112   104    57 1
  113   105    57 1
  114   106    57 1
  115   107    55 1
  116   108    55 1
  117   109    54 1
  118   110    54 1
  119   111    53 1
  120   112    53 1
  121   113    19 1
  122   114    18 1
  123   115    17 1
  124   116     9 1
  125   117     2 1
  126   118    52 1
  127   119    52 1
  128   120    52 1
  129   121    51 1
  130   122    50 1
  131   123    50 1
  132   124    49 1
  133   125    49 1
  134   126    48 1
  135   127    48 1
  136   128    43 1
  137   129    43 1
  138   130    43 1
  139   131    39 1
  140   132    32 1
  141   133    31 1
  142   134    61 1
  143   135    56 1
  144   136    24 1
  145   137    24 1
  146   139   138 1
  147   140   139 1
  148   141   140 1
  149   142   140 1
  150   143   142 1
  151   144   138 1
  152   144   143 1
  153   145   144 1
  154   146   145 1
  155   147   146 1
  156   148   147 1
  157   149   148 1
  158   150   149 1
  159   151   150 1
  160   152   151 1
  161   153   152 1
  162   154   138 1
  163   155   138 1
  164   156   143 1
  165   157   147 1
  166   158   151 1
  167   160   159 1
  168   161   160 1
  169   162   161 1
  170   163   161 1
  171   164   163 1
  172   165   159 1
  173   165   164 1
  174   166   165 1
  175   167   166 1
  176   168   167 1
  177   169   168 1
  178   170   169 1
  179   171   170 1
  180   172   171 1
  181   173   172 1
  182   174   153 1
  183   174   173 1
  184   175   159 1
  185   176   159 1
  186   177   164 1
  187   178   168 1
  188   179   172 1
  189   180   179 1
  190   181   179 1
  191   182   179 1
  192   183   178 1
  193   184   178 1
  194   185   178 1
  195   186   177 1
  196   187   177 1
  197   188   177 1
  198   189   176 1
  199   190   176 1
  200   191   176 1
  201   192   175 1
  202   193   175 1
  203   194   175 1
  204   195   160 1
  205   196   160 1
  206   197   158 1
  207   198   158 1
  208   199   158 1
  209   200   157 1
  210   201   157 1
  211   202   157 1
  212   203   156 1
  213   204   156 1
  214   205   156 1
  215   206   155 1
  216   207   155 1
  217   208   155 1
  218   209   154 1
  219   210   154 1
  220   211   154 1
  221   212   141 1
  222   213   146 1
  223   214   145 1
  224   215   142 1
  225   216   142 1
  226   217   174 1
  227   218   173 1
  228   219   171 1
  229   220   170 1
  230   221   169 1
  231   222   140 1
  232   223   167 1
  233   224   166 1
  234   225   165 1
  235   226   163 1
  236   227   161 1
  237   228   139 1
  238   229   139 1
  239   230   153 1
  240   231   152 1
  241   232   150 1
  242   233   149 1
  243   234   148 1
  244   235   162 1
  245   65    153 1
  246   65    174 1
@<TRIPOS>SUBSTRUCTURE
      1 CLA               1 ****               0 ****  **** 
      2 LUT             138 ****               0 ****  **** 
