@<TRIPOS>MOLECULE
Cpptraj generated mol2 file.
  235   246     2     0     0
SMALL
USER_CHARGES


@<TRIPOS>ATOM
      1 CAA        78.9292   57.6252   34.1665 a2         1 CLA     -0.055900
      2 CAB        77.6669   61.3197   43.2620 c8         1 CLA     -0.148500
      3 CAC        71.4135   56.4280   42.1568 a2         1 CLA     -0.012600
      4 CAD        74.8094   54.7319   35.0708 ck         1 CLA      0.398800
      5 NA         77.6330   57.8384   37.5346 ns         1 CLA     -0.225500
      6 CBA        80.2576   57.4703   33.3995 a2         1 CLA     -0.135000
      7 CBB        78.7130   61.6658   44.0297 c0         1 CLA     -0.395200
      8 CBC        71.5749   54.8840   42.2291 a3         1 CLA     -0.037700
      9 CBD        76.3196   55.3594   34.9122 a1         1 CLA     -0.053900
     10 NB         77.0817   59.3332   40.2012 nm         1 CLA     -0.295700
     11 OBD        74.3225   53.9393   34.2610 o2         1 CLA     -0.494600
     12 CGA        80.8902   56.1749   33.1682 c4         1 CLA      0.827000
     13 CGD        77.3221   54.2235   34.7847 c4         1 CLA      0.655300
     14 ND         74.9492   56.6003   37.9997 nm         1 CLA     -0.291600
     15 CED        78.0021   51.9818   35.4876 a3         1 CLA      0.005400
     16 CHA        76.5647   56.2011   36.1512 cs         1 CLA     -0.123800
     17 CHB        79.0088   59.5679   38.6581 aa         1 CLA     -0.291900
     18 CHC        75.5145   59.4072   42.1089 aa         1 CLA     -0.090400
     19 CHD        72.9135   56.4139   39.3957 aa         1 CLA     -0.052000
     20 CMA        81.1479   57.9818   37.0711 a3         1 CLA     -0.230700
     21 CMB        80.0562   61.4782   40.8936 a3         1 CLA     -0.180800
     22 CMC        73.1339   58.5409   43.9221 a3         1 CLA     -0.134000
     23 CMD        71.9331   54.6096   37.0588 a3         1 CLA     -0.141100
     24 C1         82.3538   54.4490   34.2096 a2         1 CLA      0.023000
     25 C1A        77.6827   57.0541   36.4185 ac         1 CLA     -0.015100
     26 C1B        78.3050   59.8645   39.8383 cr         1 CLA      0.054700
     27 C1C        74.5010   58.5585   41.6827 cn         1 CLA     -0.005600
     28 C1D        73.6780   56.0608   38.2508 ap         1 CLA     -0.047300
     29 O1A        80.6940   55.4793   32.2039 o2         1 CLA     -0.610800
     30 O1D        78.2905   54.2675   34.0868 o2         1 CLA     -0.558200
     31 C2         81.6207   53.7338   35.3111 c8         1 CLA     -0.325100
     32 C2A        79.0181   57.3283   35.6502 a1         1 CLA      0.098600
     33 C2B        78.7412   60.7782   40.8741 cb         1 CLA      0.088500
     34 C2C        73.4324   58.0944   42.5184 cb         1 CLA      0.053700
     35 C2D        73.2574   55.2715   37.1844 cb         1 CLA      0.058900
     36 O2A        81.7511   55.8186   34.1951 o1         1 CLA     -0.437200
     37 O2D        77.0373   53.0912   35.5514 o1         1 CLA     -0.357600
     38 C3         82.1018   52.9838   36.3436 c5         1 CLA      0.031200
     39 C3A        79.7416   58.4319   36.4819 a1         1 CLA      0.166800
     40 C3B        77.7532   60.7216   41.8849 cb         1 CLA      0.035000
     41 C3C        72.6245   57.2587   41.7523 cb         1 CLA     -0.089900
     42 C3D        74.3342   55.2405   36.2825 cb         1 CLA     -0.035900
     43 C4         81.6916   51.5356   36.2868 a3         1 CLA     -0.053300
     44 C4A        78.7703   58.6579   37.6153 ac         1 CLA      0.001800
     45 C4B        76.7006   59.7732   41.4148 cn         1 CLA     -0.020900
     46 C4C        73.2533   57.2118   40.5015 cr         1 CLA     -0.044400
     47 C4D        75.3421   56.0450   36.8526 c6         1 CLA     -0.046000
     48 C5         82.4975   53.5817   37.6707 a2         1 CLA     -0.070400
     49 C6         83.5838   54.6181   37.5770 a2         1 CLA      0.043900
     50 C7         83.7050   55.3522   38.9590 a2         1 CLA     -0.150000
     51 C8         84.5380   56.6625   38.7412 a1         1 CLA      0.064200
     52 C9         86.0120   56.2087   38.3331 a3         1 CLA     -0.259300
     53 C10        84.7683   57.5696   39.9978 a2         1 CLA     -0.071900
     54 C11        83.5973   58.2603   40.5520 a2         1 CLA      0.014500
     55 C12        83.9202   59.1087   41.7680 a2         1 CLA     -0.112100
     56 C13        84.6821   58.5421   43.0214 a1         1 CLA      0.089200
     57 C14        84.1152   57.2323   43.4967 a3         1 CLA     -0.239100
     58 C15        84.8785   59.5414   44.1232 a2         1 CLA     -0.102200
     59 C16        83.7131   60.3366   44.7202 a2         1 CLA      0.023900
     60 C17        84.1213   60.7856   46.1379 a2         1 CLA     -0.105700
     61 C18        83.0275   61.5231   47.0315 a1         1 CLA      0.206800
     62 C19        81.9371   60.5305   47.6190 a3         1 CLA     -0.280100
     63 C20        83.6300   62.1962   48.2930 a3         1 CLA     -0.280100
     64 NC         74.5488   57.8573   40.5285 nx         1 CLA     -0.309200
     65 MG         75.9952   57.9478   39.0139 mg         1 CLA      0.895000
     66 HMD3       71.6119   54.2369   38.0553 dc         1 CLA      0.064300
     67 HMD2       71.2259   55.3675   36.8266 dc         1 CLA      0.064300
     68 HMD1       71.9631   53.9540   36.2267 dc         1 CLA      0.064300
     69 HMC3       72.0902   58.6504   43.9371 dc         1 CLA      0.052100
     70 HMC2       73.4029   57.6577   44.5211 dc         1 CLA      0.052100
     71 HMC1       73.7291   59.4661   44.2599 dc         1 CLA      0.052100
     72 HMB3       80.7658   60.7613   41.3954 dc         1 CLA      0.063600
     73 HMB2       80.2251   61.7114   39.9078 dc         1 CLA      0.063600
     74 HMB1       79.9085   62.3840   41.5657 dc         1 CLA      0.063600
     75 HMA3       81.6995   58.7773   37.5833 dc         1 CLA      0.058300
     76 HMA2       81.0629   57.1603   37.8635 dc         1 CLA      0.058300
     77 HMA1       81.8072   57.7118   36.2769 dc         1 CLA      0.058300
     78 HED3       77.7154   51.0769   36.0377 dc         1 CLA      0.079300
     79 HED2       78.0193   51.5942   34.5014 dc         1 CLA      0.079300
     80 HED1       78.9525   52.2719   35.7580 dc         1 CLA      0.079300
     81 HBC3       72.2306   54.5687   43.0539 dc         1 CLA      0.016300
     82 HBC2       70.6033   54.4646   42.5457 dc         1 CLA      0.016300
     83 HBC1       71.8474   54.4471   41.2440 dc         1 CLA      0.016300
     84 HBB2       78.6422   62.1102   45.0612 da         1 CLA      0.183000
     85 HBB1       79.6997   61.2139   43.7902 da         1 CLA      0.183000
     86 HBA2       80.0630   57.8717   32.3941 dc         1 CLA      0.029400
     87 HBA1       81.0566   58.0933   33.8453 dc         1 CLA      0.029400
     88 HAC2       71.0601   56.6816   43.1500 dc         1 CLA      0.029300
     89 HAC1       70.6572   56.7147   41.4817 dc         1 CLA      0.029300
     90 HAA2       78.2290   57.0157   33.6070 dc         1 CLA      0.028700
     91 HAA1       78.6495   58.7100   33.9966 dc         1 CLA      0.028700
     92 H203       83.9560   61.6208   49.0974 dc         1 CLA      0.065600
     93 H202       84.3694   62.9226   47.9573 dc         1 CLA      0.065600
     94 H201       82.7789   62.7923   48.7960 dc         1 CLA      0.065600
     95 H193       81.1502   60.9098   48.3193 dc         1 CLA      0.065600
     96 H192       81.3069   60.2725   46.7752 dc         1 CLA      0.065600
     97 H191       82.4077   59.6140   48.0269 dc         1 CLA      0.065600
     98 H172       84.5836   60.0244   46.7725 dc         1 CLA      0.027600
     99 H171       84.8490   61.4788   45.9693 dc         1 CLA      0.027600
    100 H162       83.3356   61.2024   44.1748 dc         1 CLA      0.002900
    101 H161       82.8748   59.7048   44.7681 dc         1 CLA      0.002900
    102 H152       85.3852   58.9844   44.9630 dc         1 CLA      0.029100
    103 H151       85.4933   60.3630   43.7116 dc         1 CLA      0.029100
    104 H143       84.2788   56.4922   42.7225 dc         1 CLA      0.063600
    105 H142       84.6741   57.0214   44.4090 dc         1 CLA      0.063600
    106 H141       83.0206   57.3256   43.6740 dc         1 CLA      0.063600
    107 H122       84.2842   60.0606   41.3824 dc         1 CLA      0.032500
    108 H121       82.9182   59.4209   42.1657 dc         1 CLA      0.032500
    109 H112       83.2872   58.9813   39.7775 dc         1 CLA      0.006600
    110 H111       82.7801   57.5522   40.7177 dc         1 CLA      0.006600
    111 H102       85.1883   56.8173   40.6598 dc         1 CLA      0.024100
    112 H101       85.4357   58.3080   39.6094 dc         1 CLA      0.024100
    113 HHD        71.9095   56.0194   39.3261 da         1 CLA      0.174300
    114 HHC        75.5243   59.8459   43.1664 da         1 CLA      0.136800
    115 HHB        79.8987   60.1755   38.5056 da         1 CLA      0.138300
    116 HBD        76.3307   56.0734   34.1285 dc         1 CLA      0.107700
    117 HAB        76.7017   61.6102   43.7042 da         1 CLA      0.155200
    118 H93        85.8139   55.6338   37.4358 dc         1 CLA      0.069500
    119 H92        86.5600   57.0522   37.9916 dc         1 CLA      0.069500
    120 H91        86.5167   55.6241   39.1864 dc         1 CLA      0.069500
    121 H8         84.0417   57.1138   37.9280 dc         1 CLA      0.029300
    122 H72        82.7281   55.7286   39.2658 dc         1 CLA      0.044400
    123 H71        84.2187   54.6924   39.7277 dc         1 CLA      0.044400
    124 H62        84.5386   54.2672   37.2293 dc         1 CLA      0.015600
    125 H61        83.2375   55.3646   36.8367 dc         1 CLA      0.015600
    126 H52        81.5936   54.0577   37.9740 dc         1 CLA      0.033200
    127 H51        82.7921   52.8606   38.4008 dc         1 CLA      0.033200
    128 H43        81.0746   51.2183   37.1519 dc         1 CLA      0.037000
    129 H42        81.2549   51.2587   35.3581 dc         1 CLA      0.037000
    130 H41        82.6067   50.9946   36.3747 dc         1 CLA      0.037000
    131 H3A        79.8074   59.4410   36.0653 dc         1 CLA      0.041100
    132 H2A        79.6582   56.5177   35.7711 dc         1 CLA      0.083100
    133 H2         80.5559   53.9174   35.3611 da         1 CLA      0.180900
    134 H18        82.4947   62.2879   46.4408 dc         1 CLA     -0.003900
    135 H13        85.7439   58.3138   42.7200 dc         1 CLA      0.019700
    136 H12        82.1776   53.9617   33.2424 dc         1 CLA      0.120400
    137 H11        83.3787   54.4481   34.5037 dc         1 CLA      0.120400
    138 C1         68.0887   60.2801   49.6368 Z1         2 LUT      0.509236
    139 C2         66.6780   60.2023   50.2715 Z2         2 LUT     -0.434695
    140 C3         66.0557   61.5300   50.6816 Z3         2 LUT      0.437453
    141 O3         66.6370   62.1807   51.8164 S1         2 LUT     -0.547129
    142 C4         66.2601   62.5447   49.5804 Z4         2 LUT     -0.468603
    143 C5         66.8989   62.0510   48.3350 Z5         2 LUT      0.279246
    144 C6         67.8986   61.1336   48.3935 Z6         2 LUT     -0.305473
    145 C7         68.3500   60.5793   47.0334 Z7         2 LUT      0.069402
    146 C8         69.2435   61.1425   46.2317 Z8         2 LUT     -0.191631
    147 C9         69.5922   60.7390   44.8170 Z9         2 LUT      0.196698
    148 C10        70.5370   61.4456   44.1513 Y1         2 LUT     -0.208611
    149 C11        71.2381   61.1943   42.8918 Y2         2 LUT      0.030784
    150 C12        72.3241   62.0059   42.6814 Y3         2 LUT     -0.220316
    151 C13        73.1697   62.0100   41.5279 Y4         2 LUT      0.215937
    152 C14        74.2756   62.8334   41.5716 Y5         2 LUT     -0.185793
    153 C15        75.4094   63.0722   40.7181 Y6         2 LUT     -0.057835
    154 C16        68.5249   58.7590   49.4474 Y7         2 LUT     -0.405615
    155 C17        69.0950   60.9788   50.4997 Y7         2 LUT     -0.405615
    156 C18        66.2558   62.6623   47.0783 Y9         2 LUT     -0.369639
    157 C19        69.1168   59.3342   44.2518 W1         2 LUT     -0.333362
    158 C20        72.7090   61.2986   40.2367 W2         2 LUT     -0.323439
    159 C21        87.0763   64.7081   34.9870 Z1         2 LUT      0.406104
    160 C22        87.7406   64.2551   33.6381 Z2         2 LUT     -0.404965
    161 C23        87.8513   65.3444   32.6199 Z3         2 LUT      0.391255
    162 O23        88.4947   64.9017   31.4729 S1         2 LUT     -0.528210
    163 C24        86.4427   65.9295   32.4400 W6         2 LUT     -0.258361
    164 C25        85.4531   65.8078   33.2817 Z5         2 LUT      0.133546
    165 C26        85.5397   64.9886   34.6062 W8         2 LUT     -0.147008
    166 C27        84.7840   65.5863   35.7801 Z7         2 LUT      0.023843
    167 C28        83.6091   65.1878   36.3123 Z8         2 LUT     -0.216987
    168 C29        82.9497   65.7148   37.5178 Z9         2 LUT      0.206524
    169 C30        81.8541   65.0063   37.9792 Y1         2 LUT     -0.215556
    170 C31        80.9251   65.1776   39.1321 Y2         2 LUT      0.025142
    171 C32        79.6500   64.6282   39.2267 Y3         2 LUT     -0.212209
    172 C33        78.6961   64.7507   40.2678 Y4         2 LUT      0.240937
    173 C34        77.5628   64.0766   40.1129 Y5         2 LUT     -0.218862
    174 C35        76.4603   63.8644   41.0098 Y6         2 LUT     -0.023547
    175 C36        87.8365   65.9620   35.5482 Y7         2 LUT     -0.393485
    176 C37        87.3440   63.6209   36.0560 Y7         2 LUT     -0.393485
    177 C38        84.2087   66.4717   32.9613 Y9         2 LUT     -0.387526
    178 C39        83.5801   66.9241   38.1209 W1         2 LUT     -0.322618
    179 C40        79.2156   65.3567   41.5809 W2         2 LUT     -0.358472
    180 H403       78.5253   65.4493   42.3873 R7         2 LUT      0.097720
    181 H402       80.0978   64.8090   41.8436 R7         2 LUT      0.097720
    182 H401       79.6109   66.3432   41.4926 R7         2 LUT      0.097720
    183 H393       84.5123   66.7157   38.6877 R4         2 LUT      0.082505
    184 H392       83.9003   67.6046   37.3481 R4         2 LUT      0.082505
    185 H391       82.9459   67.4461   38.8191 R4         2 LUT      0.082505
    186 H383       83.3115   65.7751   32.9704 R1         2 LUT      0.104030
    187 H382       83.9941   67.3056   33.6824 R1         2 LUT      0.104030
    188 H381       84.2898   66.8742   31.9166 R1         2 LUT      0.104030
    189 H373       88.4224   63.5751   36.2267 T4         2 LUT      0.089537
    190 H372       86.7621   63.7370   36.9708 T4         2 LUT      0.089537
    191 H371       87.2354   62.6185   35.7025 T4         2 LUT      0.089537
    192 H363       87.4149   66.8450   35.0551 T4         2 LUT      0.089537
    193 H362       87.6511   66.1257   36.6452 T4         2 LUT      0.089537
    194 H361       88.8596   65.9871   35.3008 T4         2 LUT      0.089537
    195 H222       88.7347   63.8843   33.9338 U2         2 LUT      0.127376
    196 H221       87.1484   63.4503   33.3106 U2         2 LUT      0.127376
    197 H203       72.1421   60.3787   40.3561 R7         2 LUT      0.087068
    198 H202       71.9964   61.8942   39.6824 R7         2 LUT      0.087068
    199 H201       73.5602   60.9767   39.6549 R7         2 LUT      0.087068
    200 H193       69.1286   59.4922   43.2111 R4         2 LUT      0.089716
    201 H192       69.7418   58.4607   44.5144 R4         2 LUT      0.089716
    202 H191       68.0866   59.1547   44.5303 R4         2 LUT      0.089716
    203 H183       66.6565   63.6294   46.8574 R1         2 LUT      0.094572
    204 H182       66.5309   61.9977   46.1705 R1         2 LUT      0.094572
    205 H181       65.1946   62.7941   47.1693 R1         2 LUT      0.094572
    206 H173       69.2247   60.6651   51.6362 T4         2 LUT      0.093752
    207 H172       70.0554   60.7996   50.1552 T4         2 LUT      0.093752
    208 H171       68.9293   62.0603   50.4690 T4         2 LUT      0.093752
    209 H163       67.8655   58.2028   48.8323 T4         2 LUT      0.093752
    210 H162       69.5141   58.5805   49.1498 T4         2 LUT      0.093752
    211 H161       68.5624   58.4065   50.4594 T4         2 LUT      0.093752
    212 HO3        66.4186   61.7921   52.6456 Q1         2 LUT      0.300121
    213 H8         69.7516   61.9755   46.6165 U7         2 LUT      0.080784
    214 H7         67.7655   59.7142   46.7345 U6         2 LUT      0.042190
    215 H42        65.2450   62.8372   49.2927 U5         2 LUT      0.145166
    216 H41        66.8558   63.4547   49.8823 U5         2 LUT      0.145166
    217 H35        76.3267   64.4369   41.9168 T3         2 LUT      0.077919
    218 H34        77.5341   63.3694   39.1510 T2         2 LUT      0.073626
    219 H32        79.4851   63.9559   38.3658 T1         2 LUT      0.092510
    220 H31        81.1882   65.9349   39.9627 U9         2 LUT      0.070048
    221 H30        81.5200   64.1398   37.3534 U8         2 LUT      0.085442
    222 H3         64.9373   61.3457   50.8454 U3         2 LUT     -0.031596
    223 H28        83.0737   64.4460   35.6598 U7         2 LUT      0.084728
    224 H27        85.3246   66.1645   36.4743 U6         2 LUT      0.087291
    225 H26        85.0828   64.0032   34.4326 Q6         2 LUT      0.075325
    226 H24        86.2181   66.6085   31.6308 Q5         2 LUT      0.094482
    227 H23        88.5250   66.1627   33.0160 U3         2 LUT     -0.024869
    228 H22        65.9663   59.6866   49.7407 U2         2 LUT      0.127376
    229 H21        66.7752   59.6392   51.2163 U2         2 LUT      0.127376
    230 H15        75.4579   62.3443   39.7925 T3         2 LUT      0.093200
    231 H14        74.4956   63.4084   42.5100 T2         2 LUT      0.068865
    232 H12        72.6757   62.7245   43.4914 T1         2 LUT      0.095507
    233 H11        70.9638   60.3997   42.1478 U9         2 LUT      0.068930
    234 H10        70.8667   62.3386   44.7282 U8         2 LUT      0.083911
    235 H1         87.8934   64.4952   30.8251 Q1         2 LUT      0.297311
@<TRIPOS>BOND
    1     6     1 1
    2     7     2 1
    3     8     3 1
    4     9     4 1
    5    11     4 1
    6    12     6 1
    7    13     9 1
    8    16     9 1
    9    25     5 1
   10    25    16 1
   11    26    10 1
   12    26    17 1
   13    27    18 1
   14    28    14 1
   15    28    19 1
   16    29    12 1
   17    30    13 1
   18    31    24 1
   19    32     1 1
   20    32    25 1
   21    33    21 1
   22    33    26 1
   23    34    22 1
   24    34    27 1
   25    35    23 1
   26    35    28 1
   27    36    12 1
   28    36    24 1
   29    37    13 1
   30    37    15 1
   31    38    31 1
   32    39    20 1
   33    39    32 1
   34    40     2 1
   35    40    33 1
   36    41     3 1
   37    41    34 1
   38    42     4 1
   39    42    35 1
   40    43    38 1
   41    44     5 1
   42    44    17 1
   43    44    39 1
   44    45    10 1
   45    45    18 1
   46    45    40 1
   47    46    19 1
   48    46    41 1
   49    47    14 1
   50    47    16 1
   51    47    42 1
   52    48    38 1
   53    49    48 1
   54    50    49 1
   55    51    50 1
   56    52    51 1
   57    53    51 1
   58    54    53 1
   59    55    54 1
   60    56    55 1
   61    57    56 1
   62    58    56 1
   63    59    58 1
   64    60    59 1
   65    61    60 1
   66    62    61 1
   67    63    61 1
   68    64    27 1
   69    64    46 1
   70    65     5 1
   71    65    10 1
   72    65    64 1
   73    65    14 1
   74    66    23 1
   75    67    23 1
   76    68    23 1
   77    69    22 1
   78    70    22 1
   79    71    22 1
   80    72    21 1
   81    73    21 1
   82    74    21 1
   83    75    20 1
   84    76    20 1
   85    77    20 1
   86    78    15 1
   87    79    15 1
   88    80    15 1
   89    81     8 1
   90    82     8 1
   91    83     8 1
   92    84     7 1
   93    85     7 1
   94    86     6 1
   95    87     6 1
   96    88     3 1
   97    89     3 1
   98    90     1 1
   99    91     1 1
  100    92    63 1
  101    93    63 1
  102    94    63 1
  103    95    62 1
  104    96    62 1
  105    97    62 1
  106    98    60 1
  107    99    60 1
  108   100    59 1
  109   101    59 1
  110   102    58 1
  111   103    58 1
  112   104    57 1
  113   105    57 1
  114   106    57 1
  115   107    55 1
  116   108    55 1
  117   109    54 1
  118   110    54 1
  119   111    53 1
  120   112    53 1
  121   113    19 1
  122   114    18 1
  123   115    17 1
  124   116     9 1
  125   117     2 1
  126   118    52 1
  127   119    52 1
  128   120    52 1
  129   121    51 1
  130   122    50 1
  131   123    50 1
  132   124    49 1
  133   125    49 1
  134   126    48 1
  135   127    48 1
  136   128    43 1
  137   129    43 1
  138   130    43 1
  139   131    39 1
  140   132    32 1
  141   133    31 1
  142   134    61 1
  143   135    56 1
  144   136    24 1
  145   137    24 1
  146   139   138 1
  147   140   139 1
  148   141   140 1
  149   142   140 1
  150   143   142 1
  151   144   138 1
  152   144   143 1
  153   145   144 1
  154   146   145 1
  155   147   146 1
  156   148   147 1
  157   149   148 1
  158   150   149 1
  159   151   150 1
  160   152   151 1
  161   153   152 1
  162   154   138 1
  163   155   138 1
  164   156   143 1
  165   157   147 1
  166   158   151 1
  167   160   159 1
  168   161   160 1
  169   162   161 1
  170   163   161 1
  171   164   163 1
  172   165   159 1
  173   165   164 1
  174   166   165 1
  175   167   166 1
  176   168   167 1
  177   169   168 1
  178   170   169 1
  179   171   170 1
  180   172   171 1
  181   173   172 1
  182   174   153 1
  183   174   173 1
  184   175   159 1
  185   176   159 1
  186   177   164 1
  187   178   168 1
  188   179   172 1
  189   180   179 1
  190   181   179 1
  191   182   179 1
  192   183   178 1
  193   184   178 1
  194   185   178 1
  195   186   177 1
  196   187   177 1
  197   188   177 1
  198   189   176 1
  199   190   176 1
  200   191   176 1
  201   192   175 1
  202   193   175 1
  203   194   175 1
  204   195   160 1
  205   196   160 1
  206   197   158 1
  207   198   158 1
  208   199   158 1
  209   200   157 1
  210   201   157 1
  211   202   157 1
  212   203   156 1
  213   204   156 1
  214   205   156 1
  215   206   155 1
  216   207   155 1
  217   208   155 1
  218   209   154 1
  219   210   154 1
  220   211   154 1
  221   212   141 1
  222   213   146 1
  223   214   145 1
  224   215   142 1
  225   216   142 1
  226   217   174 1
  227   218   173 1
  228   219   171 1
  229   220   170 1
  230   221   169 1
  231   222   140 1
  232   223   167 1
  233   224   166 1
  234   225   165 1
  235   226   163 1
  236   227   161 1
  237   228   139 1
  238   229   139 1
  239   230   153 1
  240   231   152 1
  241   232   150 1
  242   233   149 1
  243   234   148 1
  244   235   162 1
  245   65    153 1
  246   65    174 1
@<TRIPOS>SUBSTRUCTURE
      1 CLA               1 ****               0 ****  **** 
      2 LUT             138 ****               0 ****  **** 
