@<TRIPOS>MOLECULE
Cpptraj generated mol2 file.
  235   246     2     0     0
SMALL
USER_CHARGES


@<TRIPOS>ATOM
      1 CAA        79.7417   59.1249   33.1752 a2         1 CLA     -0.055900
      2 CAB        80.1237   62.6061   42.2252 c8         1 CLA     -0.148500
      3 CAC        73.0370   58.6929   42.1860 a2         1 CLA     -0.012600
      4 CAD        75.4643   56.6645   34.3894 ck         1 CLA      0.398800
      5 NA         78.7386   59.5425   36.5487 ns         1 CLA     -0.225500
      6 CBA        80.8646   58.8978   32.1800 a2         1 CLA     -0.135000
      7 CBB        81.3786   62.9522   42.6548 c0         1 CLA     -0.395200
      8 CBC        73.0823   57.2701   42.6822 a3         1 CLA     -0.037700
      9 CBD        76.9507   57.0793   34.0790 a1         1 CLA     -0.053900
     10 NB         78.7369   60.9626   39.1525 nm         1 CLA     -0.295700
     11 OBD        74.7652   56.0773   33.5985 o2         1 CLA     -0.494600
     12 CGA        81.2674   57.4356   32.1024 c4         1 CLA      0.827000
     13 CGD        77.7778   55.9064   33.6186 c4         1 CLA      0.655300
     14 ND         76.0878   58.5137   37.3871 nm         1 CLA     -0.291600
     15 CED        78.2216   53.5668   34.1146 a3         1 CLA      0.005400
     16 CHA        77.4195   57.9679   35.3194 cs         1 CLA     -0.123800
     17 CHB        80.3285   61.0967   37.3666 aa         1 CLA     -0.291900
     18 CHC        77.7133   60.8357   41.3745 aa         1 CLA     -0.090400
     19 CHD        74.2529   58.3758   39.0326 aa         1 CLA     -0.052000
     20 CMA        82.0834   58.8663   36.0339 a3         1 CLA     -0.230700
     21 CMB        81.7381   62.9352   39.4232 a3         1 CLA     -0.180800
     22 CMC        75.6695   60.1500   43.6459 a3         1 CLA     -0.134000
     23 CMD        72.9459   56.6515   36.8012 a3         1 CLA     -0.141100
     24 C1         82.7499   55.7789   33.0914 a2         1 CLA      0.023000
     25 C1A        78.6170   58.6719   35.5383 ac         1 CLA     -0.015100
     26 C1B        79.8949   61.4252   38.7006 cr         1 CLA      0.054700
     27 C1C        76.5227   60.1166   41.1419 cn         1 CLA     -0.005600
     28 C1D        74.8294   58.0576   37.7614 ap         1 CLA     -0.047300
     29 O1A        81.0679   56.7408   31.1382 o2         1 CLA     -0.610800
     30 O1D        78.5386   55.8059   32.6323 o2         1 CLA     -0.558200
     31 C2         83.2861   55.5073   34.4453 c8         1 CLA     -0.325100
     32 C2A        79.8651   58.6084   34.6349 a1         1 CLA      0.098600
     33 C2B        80.5514   62.1810   39.6836 cb         1 CLA      0.088500
     34 C2C        75.4810   59.8467   42.1857 cb         1 CLA      0.053700
     35 C2D        74.2265   57.2867   36.7479 cb         1 CLA      0.058900
     36 O2A        82.2066   57.1184   33.1490 o1         1 CLA     -0.437200
     37 O2D        77.6504   54.8455   34.4872 o1         1 CLA     -0.357600
     38 C3         84.4342   54.8094   34.7066 c5         1 CLA      0.031200
     39 C3A        80.8190   59.6018   35.3926 a1         1 CLA      0.166800
     40 C3B        79.8738   62.0653   40.8858 cb         1 CLA      0.035000
     41 C3C        74.4220   59.1510   41.5110 cb         1 CLA     -0.089900
     42 C3D        75.1900   57.2046   35.7550 cb         1 CLA     -0.035900
     43 C4         84.4200   53.3766   35.2464 a3         1 CLA     -0.053300
     44 C4A        79.9233   60.1877   36.5040 ac         1 CLA      0.001800
     45 C4B        78.7199   61.2576   40.4906 cn         1 CLA     -0.020900
     46 C4C        74.8935   59.0392   40.1439 cr         1 CLA     -0.044400
     47 C4D        76.2996   57.9988   36.2067 c6         1 CLA     -0.046000
     48 C5         85.7501   55.5478   34.5700 a2         1 CLA     -0.070400
     49 C6         86.0342   56.6637   35.6340 a2         1 CLA      0.043900
     50 C7         86.0878   56.1582   37.1126 a2         1 CLA     -0.150000
     51 C8         86.3411   57.2978   38.1183 a1         1 CLA      0.064200
     52 C9         87.6486   58.0758   37.7648 a3         1 CLA     -0.259300
     53 C10        86.2893   56.6554   39.5389 a2         1 CLA     -0.071900
     54 C11        86.3875   57.7706   40.6505 a2         1 CLA      0.014500
     55 C12        85.9906   57.1536   42.0775 a2         1 CLA     -0.112100
     56 C13        85.7490   58.2898   43.1877 a1         1 CLA      0.089200
     57 C14        87.0789   59.0708   43.4903 a3         1 CLA     -0.239100
     58 C15        85.1333   57.8278   44.5415 a2         1 CLA     -0.102200
     59 C16        83.7370   57.3129   44.6286 a2         1 CLA      0.023900
     60 C17        82.7971   58.4661   44.3339 a2         1 CLA     -0.105700
     61 C18        81.2437   58.1884   44.1699 a1         1 CLA      0.206800
     62 C19        80.6119   57.3427   45.3474 a3         1 CLA     -0.280100
     63 C20        80.4588   59.4628   43.7607 a3         1 CLA     -0.280100
     64 NC         76.1896   59.5501   39.9753 nx         1 CLA     -0.309200
     65 MG         77.3207   59.7546   38.1892 mg         1 CLA      0.895000
     66 HMD3       72.9755   55.9076   35.9996 dc         1 CLA      0.064300
     67 HMD2       72.7473   56.1905   37.7444 dc         1 CLA      0.064300
     68 HMD1       72.2827   57.4172   36.4813 dc         1 CLA      0.064300
     69 HMC3       76.6626   59.9765   43.9479 dc         1 CLA      0.052100
     70 HMC2       75.3491   61.1564   43.8569 dc         1 CLA      0.052100
     71 HMC1       75.0315   59.5743   44.3499 dc         1 CLA      0.052100
     72 HMB3       82.5446   62.2322   39.6228 dc         1 CLA      0.063600
     73 HMB2       81.8961   63.2206   38.3780 dc         1 CLA      0.063600
     74 HMB1       81.7758   63.8469   40.0366 dc         1 CLA      0.063600
     75 HMA3       81.7124   58.2308   36.8118 dc         1 CLA      0.058300
     76 HMA2       82.6732   58.1505   35.3689 dc         1 CLA      0.058300
     77 HMA1       82.7303   59.6521   36.4279 dc         1 CLA      0.058300
     78 HED3       77.8716   53.1764   33.1451 dc         1 CLA      0.079300
     79 HED2       79.3204   53.6603   34.1234 dc         1 CLA      0.079300
     80 HED1       77.8391   52.8864   34.8491 dc         1 CLA      0.079300
     81 HBC3       73.5955   57.2299   43.6083 dc         1 CLA      0.016300
     82 HBC2       71.9905   57.0420   42.7656 dc         1 CLA      0.016300
     83 HBC1       73.5410   56.5934   41.9684 dc         1 CLA      0.016300
     84 HBB2       81.4828   63.3600   43.7331 da         1 CLA      0.183000
     85 HBB1       82.2957   62.7374   42.1200 da         1 CLA      0.183000
     86 HBA2       80.5558   59.1738   31.1626 dc         1 CLA      0.029400
     87 HBA1       81.7155   59.3761   32.5481 dc         1 CLA      0.029400
     88 HAC2       72.8353   59.2806   43.1324 dc         1 CLA      0.029300
     89 HAC1       72.1714   58.7363   41.3929 dc         1 CLA      0.029300
     90 HAA2       78.9199   58.6179   32.7052 dc         1 CLA      0.028700
     91 HAA1       79.5601   60.1947   33.1791 dc         1 CLA      0.028700
     92 H203       81.1336   60.0221   43.1976 dc         1 CLA      0.065600
     93 H202       79.6225   59.0960   43.2219 dc         1 CLA      0.065600
     94 H201       80.1688   59.9709   44.6089 dc         1 CLA      0.065600
     95 H193       80.8168   57.7605   46.3242 dc         1 CLA      0.065600
     96 H192       79.5370   57.3321   45.2936 dc         1 CLA      0.065600
     97 H191       80.9864   56.2596   45.3851 dc         1 CLA      0.065600
     98 H172       82.7877   59.0640   45.2303 dc         1 CLA      0.027600
     99 H171       83.2596   58.8730   43.3713 dc         1 CLA      0.027600
    100 H162       83.5192   56.5700   43.8686 dc         1 CLA      0.002900
    101 H161       83.5804   57.0358   45.6690 dc         1 CLA      0.002900
    102 H152       85.8006   57.0457   44.8552 dc         1 CLA      0.029100
    103 H151       85.2430   58.6232   45.2511 dc         1 CLA      0.029100
    104 H143       86.9644   60.0206   44.0454 dc         1 CLA      0.063600
    105 H142       87.6509   58.4635   44.1725 dc         1 CLA      0.063600
    106 H141       87.6079   59.2657   42.5428 dc         1 CLA      0.063600
    107 H122       84.9724   56.6729   41.9446 dc         1 CLA      0.032500
    108 H121       86.7608   56.4358   42.3948 dc         1 CLA      0.032500
    109 H112       87.4363   58.1001   40.6691 dc         1 CLA      0.006600
    110 H111       85.8277   58.6574   40.5571 dc         1 CLA      0.006600
    111 H102       85.3582   56.1568   39.6239 dc         1 CLA      0.024100
    112 H101       86.9525   55.8200   39.6245 dc         1 CLA      0.024100
    113 HHD        73.2799   57.9551   39.3122 da         1 CLA      0.174300
    114 HHC        77.7716   61.1230   42.4470 da         1 CLA      0.136800
    115 HHB        81.3070   61.5202   37.1307 da         1 CLA      0.138300
    116 HBD        76.9259   57.8214   33.3053 dc         1 CLA      0.107700
    117 HAB        79.3100   62.5972   42.9676 da         1 CLA      0.155200
    118 H93        87.9356   58.7468   38.4801 dc         1 CLA      0.069500
    119 H92        88.5247   57.4116   37.6764 dc         1 CLA      0.069500
    120 H91        87.5021   58.6655   36.8558 dc         1 CLA      0.069500
    121 H8         85.4689   57.9865   38.1278 dc         1 CLA      0.029300
    122 H72        85.1057   55.7219   37.2571 dc         1 CLA      0.044400
    123 H71        86.8606   55.4189   37.0930 dc         1 CLA      0.044400
    124 H62        86.9458   57.1310   35.3956 dc         1 CLA      0.015600
    125 H61        85.2085   57.4200   35.5671 dc         1 CLA      0.015600
    126 H52        86.5891   54.8598   34.4990 dc         1 CLA      0.033200
    127 H51        85.7281   56.0677   33.6500 dc         1 CLA      0.033200
    128 H43        83.3579   53.0103   35.2573 dc         1 CLA      0.037000
    129 H42        84.8926   52.6832   34.5230 dc         1 CLA      0.037000
    130 H41        84.7864   53.3724   36.2148 dc         1 CLA      0.037000
    131 H3A        81.1594   60.4222   34.7681 dc         1 CLA      0.041100
    132 H2A        80.2949   57.5550   34.7624 dc         1 CLA      0.083100
    133 H2         82.8106   55.9646   35.2696 da         1 CLA      0.180900
    134 H18        81.1860   57.5870   43.1844 dc         1 CLA     -0.003900
    135 H13        85.1600   59.0351   42.7965 dc         1 CLA      0.019700
    136 H12        82.0883   54.9399   32.9827 dc         1 CLA      0.120400
    137 H11        83.5467   55.8368   32.3153 dc         1 CLA      0.120400
    138 C1         69.0983   61.7183   49.2984 Z1         2 LUT      0.509236
    139 C2         67.6646   61.5641   49.8433 Z2         2 LUT     -0.434695
    140 C3         66.8179   62.8159   50.1076 Z3         2 LUT      0.437453
    141 O3         67.1650   63.3425   51.4028 S1         2 LUT     -0.547129
    142 C4         67.2237   63.8801   49.0841 Z4         2 LUT     -0.468603
    143 C5         68.1502   63.6298   47.9227 Z5         2 LUT      0.279246
    144 C6         69.0574   62.5668   48.0182 Z6         2 LUT     -0.305473
    145 C7         69.8460   62.0345   46.9147 Z7         2 LUT      0.069402
    146 C8         70.6265   62.7206   46.0494 Z8         2 LUT     -0.191631
    147 C9         71.1491   62.2821   44.7549 Z9         2 LUT      0.196698
    148 C10        72.1761   62.9767   44.1654 Y1         2 LUT     -0.208611
    149 C11        72.8741   62.7684   42.8938 Y2         2 LUT      0.030784
    150 C12        74.0713   63.4964   42.7011 Y3         2 LUT     -0.220316
    151 C13        74.8927   63.5632   41.5497 Y4         2 LUT      0.215937
    152 C14        76.1072   64.2531   41.6313 Y5         2 LUT     -0.185793
    153 C15        77.1357   64.5366   40.6723 Y6         2 LUT     -0.057835
    154 C16        69.6584   60.3000   49.2990 Y7         2 LUT     -0.405615
    155 C17        69.9268   62.5156   50.3012 Y7         2 LUT     -0.405615
    156 C18        67.8170   64.3428   46.7025 Y9         2 LUT     -0.369639
    157 C19        70.4737   61.0146   44.0314 W1         2 LUT     -0.333362
    158 C20        74.3226   62.8202   40.3112 W2         2 LUT     -0.323439
    159 C21        88.1890   66.1243   33.9217 Z1         2 LUT      0.406104
    160 C22        88.8469   65.7589   32.5230 Z2         2 LUT     -0.404965
    161 C23        88.7653   66.9180   31.5181 Z3         2 LUT      0.391255
    162 O23        89.4773   66.5598   30.3756 S1         2 LUT     -0.528210
    163 C24        87.3198   67.3803   31.3805 W6         2 LUT     -0.258361
    164 C25        86.4180   67.2823   32.3690 Z5         2 LUT      0.133546
    165 C26        86.6638   66.4502   33.6425 W8         2 LUT     -0.147008
    166 C27        86.0865   67.1668   34.8709 Z7         2 LUT      0.023843
    167 C28        85.0151   66.7427   35.5178 Z8         2 LUT     -0.216987
    168 C29        84.3664   67.2668   36.7842 Z9         2 LUT      0.206524
    169 C30        83.1797   66.6688   37.2553 Y1         2 LUT     -0.215556
    170 C31        82.4439   66.7899   38.4529 Y2         2 LUT      0.025142
    171 C32        81.2580   66.2222   38.7371 Y3         2 LUT     -0.212209
    172 C33        80.2961   66.2421   39.9165 Y4         2 LUT      0.240937
    173 C34        79.1055   65.6068   39.8127 Y5         2 LUT     -0.218862
    174 C35        78.1126   65.4702   40.8184 Y6         2 LUT     -0.023547
    175 C36        89.0392   67.2809   34.6534 Y7         2 LUT     -0.393485
    176 C37        88.2715   64.6842   34.6450 Y7         2 LUT     -0.393485
    177 C38        84.9652   67.7223   32.2760 Y9         2 LUT     -0.387526
    178 C39        85.1042   68.2468   37.6112 W1         2 LUT     -0.322618
    179 C40        81.1243   66.4817   41.1346 W2         2 LUT     -0.358472
    180 H403       80.6257   66.3569   42.0978 R7         2 LUT      0.097720
    181 H402       82.0160   65.9120   41.2000 R7         2 LUT      0.097720
    182 H401       81.5259   67.4736   41.1025 R7         2 LUT      0.097720
    183 H393       85.7442   68.8758   37.0319 R4         2 LUT      0.082505
    184 H392       84.4013   68.9316   38.1299 R4         2 LUT      0.082505
    185 H391       85.6237   67.7633   38.4443 R4         2 LUT      0.082505
    186 H383       84.6744   67.8544   31.2595 R1         2 LUT      0.104030
    187 H382       84.1972   67.0162   32.6966 R1         2 LUT      0.104030
    188 H381       84.7830   68.6385   32.9428 R1         2 LUT      0.104030
    189 H373       89.3499   64.4029   34.6879 T4         2 LUT      0.089537
    190 H372       87.8458   64.6703   35.6476 T4         2 LUT      0.089537
    191 H371       87.8035   63.8582   34.1591 T4         2 LUT      0.089537
    192 H363       89.2603   68.2111   34.0851 T4         2 LUT      0.089537
    193 H362       88.5084   67.5811   35.5929 T4         2 LUT      0.089537
    194 H361       89.9273   66.9626   35.1076 T4         2 LUT      0.089537
    195 H222       89.7778   65.3184   32.5613 U2         2 LUT      0.127376
    196 H221       88.2717   65.0600   31.9177 U2         2 LUT      0.127376
    197 H203       74.8173   63.1105   39.4020 R7         2 LUT      0.087068
    198 H202       74.4098   61.6896   40.2938 R7         2 LUT      0.087068
    199 H201       73.3282   63.1014   40.0363 R7         2 LUT      0.087068
    200 H193       70.2444   60.2281   44.7410 R4         2 LUT      0.089716
    201 H192       69.5089   61.3733   43.5925 R4         2 LUT      0.089716
    202 H191       71.0484   60.6285   43.2026 R4         2 LUT      0.089716
    203 H183       66.9489   63.8848   46.1826 R1         2 LUT      0.094572
    204 H182       67.8027   65.4052   46.7407 R1         2 LUT      0.094572
    205 H181       68.4938   64.0964   45.9378 R1         2 LUT      0.094572
    206 H173       69.6722   62.1899   51.2723 T4         2 LUT      0.093752
    207 H172       70.9816   62.4005   50.2943 T4         2 LUT      0.093752
    208 H171       69.6596   63.5953   50.3458 T4         2 LUT      0.093752
    209 H163       69.4362   59.8790   48.3763 T4         2 LUT      0.093752
    210 H162       70.7862   60.4243   49.2454 T4         2 LUT      0.093752
    211 H161       69.3908   59.7417   50.1717 T4         2 LUT      0.093752
    212 HO3        66.6011   62.9789   52.0603 Q1         2 LUT      0.300121
    213 H8         70.7489   63.7513   46.2229 U7         2 LUT      0.080784
    214 H7         69.4890   61.1047   46.5039 U6         2 LUT      0.042190
    215 H42        66.3733   64.4519   48.7212 U5         2 LUT      0.145166
    216 H41        67.7220   64.7041   49.4906 U5         2 LUT      0.145166
    217 H35        78.1265   66.0499   41.6910 T3         2 LUT      0.077919
    218 H34        78.9516   64.9892   38.9441 T2         2 LUT      0.073626
    219 H32        80.8358   65.6362   37.9031 T1         2 LUT      0.092510
    220 H31        82.9115   67.3830   39.2476 U9         2 LUT      0.070048
    221 H30        82.8255   65.9574   36.5081 U8         2 LUT      0.085442
    222 H3         65.7544   62.7021   49.8591 U3         2 LUT     -0.031596
    223 H28        84.6498   65.8174   35.2150 U7         2 LUT      0.084728
    224 H27        86.5372   68.0626   35.2539 U6         2 LUT      0.087291
    225 H26        86.0692   65.5303   33.6423 Q6         2 LUT      0.075325
    226 H24        87.0181   67.7709   30.3796 Q5         2 LUT      0.094482
    227 H23        89.3794   67.7503   31.8551 U3         2 LUT     -0.024869
    228 H22        67.0570   61.0690   49.0763 U2         2 LUT      0.127376
    229 H21        67.6900   60.9198   50.6883 U2         2 LUT      0.127376
    230 H15        77.0482   63.8106   39.8109 T3         2 LUT      0.093200
    231 H14        76.4147   64.7155   42.6355 T2         2 LUT      0.068865
    232 H12        74.3975   64.0145   43.6334 T1         2 LUT      0.095507
    233 H11        72.4578   62.1666   42.0828 U9         2 LUT      0.068930
    234 H10        72.4250   63.8437   44.7209 U8         2 LUT      0.083911
    235 H1         89.0963   66.0804   29.6489 Q1         2 LUT      0.297311
@<TRIPOS>BOND
    1     6     1 1
    2     7     2 1
    3     8     3 1
    4     9     4 1
    5    11     4 1
    6    12     6 1
    7    13     9 1
    8    16     9 1
    9    25     5 1
   10    25    16 1
   11    26    10 1
   12    26    17 1
   13    27    18 1
   14    28    14 1
   15    28    19 1
   16    29    12 1
   17    30    13 1
   18    31    24 1
   19    32     1 1
   20    32    25 1
   21    33    21 1
   22    33    26 1
   23    34    22 1
   24    34    27 1
   25    35    23 1
   26    35    28 1
   27    36    12 1
   28    36    24 1
   29    37    13 1
   30    37    15 1
   31    38    31 1
   32    39    20 1
   33    39    32 1
   34    40     2 1
   35    40    33 1
   36    41     3 1
   37    41    34 1
   38    42     4 1
   39    42    35 1
   40    43    38 1
   41    44     5 1
   42    44    17 1
   43    44    39 1
   44    45    10 1
   45    45    18 1
   46    45    40 1
   47    46    19 1
   48    46    41 1
   49    47    14 1
   50    47    16 1
   51    47    42 1
   52    48    38 1
   53    49    48 1
   54    50    49 1
   55    51    50 1
   56    52    51 1
   57    53    51 1
   58    54    53 1
   59    55    54 1
   60    56    55 1
   61    57    56 1
   62    58    56 1
   63    59    58 1
   64    60    59 1
   65    61    60 1
   66    62    61 1
   67    63    61 1
   68    64    27 1
   69    64    46 1
   70    65     5 1
   71    65    10 1
   72    65    64 1
   73    65    14 1
   74    66    23 1
   75    67    23 1
   76    68    23 1
   77    69    22 1
   78    70    22 1
   79    71    22 1
   80    72    21 1
   81    73    21 1
   82    74    21 1
   83    75    20 1
   84    76    20 1
   85    77    20 1
   86    78    15 1
   87    79    15 1
   88    80    15 1
   89    81     8 1
   90    82     8 1
   91    83     8 1
   92    84     7 1
   93    85     7 1
   94    86     6 1
   95    87     6 1
   96    88     3 1
   97    89     3 1
   98    90     1 1
   99    91     1 1
  100    92    63 1
  101    93    63 1
  102    94    63 1
  103    95    62 1
  104    96    62 1
  105    97    62 1
  106    98    60 1
  107    99    60 1
  108   100    59 1
  109   101    59 1
  110   102    58 1
  111   103    58 1
  112   104    57 1
  113   105    57 1
  114   106    57 1
  115   107    55 1
  116   108    55 1
  117   109    54 1
  118   110    54 1
  119   111    53 1
  120   112    53 1
  121   113    19 1
  122   114    18 1
  123   115    17 1
  124   116     9 1
  125   117     2 1
  126   118    52 1
  127   119    52 1
  128   120    52 1
  129   121    51 1
  130   122    50 1
  131   123    50 1
  132   124    49 1
  133   125    49 1
  134   126    48 1
  135   127    48 1
  136   128    43 1
  137   129    43 1
  138   130    43 1
  139   131    39 1
  140   132    32 1
  141   133    31 1
  142   134    61 1
  143   135    56 1
  144   136    24 1
  145   137    24 1
  146   139   138 1
  147   140   139 1
  148   141   140 1
  149   142   140 1
  150   143   142 1
  151   144   138 1
  152   144   143 1
  153   145   144 1
  154   146   145 1
  155   147   146 1
  156   148   147 1
  157   149   148 1
  158   150   149 1
  159   151   150 1
  160   152   151 1
  161   153   152 1
  162   154   138 1
  163   155   138 1
  164   156   143 1
  165   157   147 1
  166   158   151 1
  167   160   159 1
  168   161   160 1
  169   162   161 1
  170   163   161 1
  171   164   163 1
  172   165   159 1
  173   165   164 1
  174   166   165 1
  175   167   166 1
  176   168   167 1
  177   169   168 1
  178   170   169 1
  179   171   170 1
  180   172   171 1
  181   173   172 1
  182   174   153 1
  183   174   173 1
  184   175   159 1
  185   176   159 1
  186   177   164 1
  187   178   168 1
  188   179   172 1
  189   180   179 1
  190   181   179 1
  191   182   179 1
  192   183   178 1
  193   184   178 1
  194   185   178 1
  195   186   177 1
  196   187   177 1
  197   188   177 1
  198   189   176 1
  199   190   176 1
  200   191   176 1
  201   192   175 1
  202   193   175 1
  203   194   175 1
  204   195   160 1
  205   196   160 1
  206   197   158 1
  207   198   158 1
  208   199   158 1
  209   200   157 1
  210   201   157 1
  211   202   157 1
  212   203   156 1
  213   204   156 1
  214   205   156 1
  215   206   155 1
  216   207   155 1
  217   208   155 1
  218   209   154 1
  219   210   154 1
  220   211   154 1
  221   212   141 1
  222   213   146 1
  223   214   145 1
  224   215   142 1
  225   216   142 1
  226   217   174 1
  227   218   173 1
  228   219   171 1
  229   220   170 1
  230   221   169 1
  231   222   140 1
  232   223   167 1
  233   224   166 1
  234   225   165 1
  235   226   163 1
  236   227   161 1
  237   228   139 1
  238   229   139 1
  239   230   153 1
  240   231   152 1
  241   232   150 1
  242   233   149 1
  243   234   148 1
  244   235   162 1
  245   65    153 1
  246   65    174 1
@<TRIPOS>SUBSTRUCTURE
      1 CLA               1 ****               0 ****  **** 
      2 LUT             138 ****               0 ****  **** 
