@<TRIPOS>MOLECULE
Cpptraj generated mol2 file.
  235   246     2     0     0
SMALL
USER_CHARGES


@<TRIPOS>ATOM
      1 CAA        79.2547   58.8773   32.8371 a2         1 CLA     -0.055900
      2 CAB        79.2505   62.3022   42.0205 c8         1 CLA     -0.148500
      3 CAC        72.4682   58.2303   41.7751 a2         1 CLA     -0.012600
      4 CAD        75.0891   56.3174   34.0464 ck         1 CLA      0.398800
      5 NA         78.3556   58.9302   36.4031 ns         1 CLA     -0.225500
      6 CBA        80.4379   58.6595   31.8593 a2         1 CLA     -0.135000
      7 CBB        80.3382   62.3793   42.7820 c0         1 CLA     -0.395200
      8 CBC        72.4363   56.7597   42.1952 a3         1 CLA     -0.037700
      9 CBD        76.4581   56.9607   33.6810 a1         1 CLA     -0.053900
     10 NB         78.1420   60.3900   39.1223 nm         1 CLA     -0.295700
     11 OBD        74.4946   55.5886   33.2574 o2         1 CLA     -0.494600
     12 CGA        80.8978   57.2082   31.6463 c4         1 CLA      0.827000
     13 CGD        77.4106   55.8677   33.1959 c4         1 CLA      0.655300
     14 ND         75.5048   58.0795   37.0999 nm         1 CLA     -0.291600
     15 CED        78.1602   53.6973   33.8220 a3         1 CLA      0.005400
     16 CHA        76.8596   57.7149   34.9940 cs         1 CLA     -0.123800
     17 CHB        79.9764   60.3568   37.4906 aa         1 CLA     -0.291900
     18 CHC        76.8677   60.5559   41.1551 aa         1 CLA     -0.090400
     19 CHD        73.7246   57.7057   38.7805 aa         1 CLA     -0.052000
     20 CMA        81.7566   58.5055   35.4429 a3         1 CLA     -0.230700
     21 CMB        81.4579   62.1320   39.7638 a3         1 CLA     -0.180800
     22 CMC        74.8891   59.6809   43.3698 a3         1 CLA     -0.134000
     23 CMD        72.4850   55.9090   36.4126 a3         1 CLA     -0.141100
     24 C1         81.6752   55.3239   32.8337 a2         1 CLA      0.023000
     25 C1A        78.1200   58.3624   35.2360 ac         1 CLA     -0.015100
     26 C1B        79.3809   60.7583   38.6966 cr         1 CLA      0.054700
     27 C1C        75.8175   59.6077   40.9720 cn         1 CLA     -0.005600
     28 C1D        74.2611   57.5737   37.4810 ap         1 CLA     -0.047300
     29 O1A        80.5797   56.4667   30.7302 o2         1 CLA     -0.610800
     30 O1D        77.9852   55.8023   32.0903 o2         1 CLA     -0.558200
     31 C2         82.4225   55.0853   34.1687 c8         1 CLA     -0.325100
     32 C2A        79.4472   58.3715   34.2973 a1         1 CLA      0.098600
     33 C2B        80.0345   61.5764   39.6811 cb         1 CLA      0.088500
     34 C2C        74.8238   59.3203   41.9317 cb         1 CLA      0.053700
     35 C2D        73.7836   56.7018   36.4032 cb         1 CLA      0.058900
     36 O2A        81.6540   56.7969   32.7397 o1         1 CLA     -0.437200
     37 O2D        77.3677   54.8311   34.1383 o1         1 CLA     -0.357600
     38 C3         83.6467   54.5754   34.3008 c5         1 CLA      0.031200
     39 C3A        80.3914   59.2130   35.2057 a1         1 CLA      0.166800
     40 C3B        79.1187   61.6284   40.7324 cb         1 CLA      0.035000
     41 C3C        73.8273   58.6262   41.2080 cb         1 CLA     -0.089900
     42 C3D        74.7420   56.7604   35.3872 cb         1 CLA     -0.035900
     43 C4         83.9891   53.1235   34.5278 a3         1 CLA     -0.053300
     44 C4A        79.5588   59.5066   36.4506 ac         1 CLA      0.001800
     45 C4B        77.9362   60.8278   40.3459 cn         1 CLA     -0.020900
     46 C4C        74.3463   58.3753   39.8351 cr         1 CLA     -0.044400
     47 C4D        75.7682   57.6027   35.9103 c6         1 CLA     -0.046000
     48 C5         84.8826   55.5060   34.2514 a2         1 CLA     -0.070400
     49 C6         85.0410   56.4014   35.4818 a2         1 CLA      0.043900
     50 C7         85.5583   55.6824   36.8066 a2         1 CLA     -0.150000
     51 C8         85.9635   56.7125   37.9384 a1         1 CLA      0.064200
     52 C9         87.5150   57.0156   37.8785 a3         1 CLA     -0.259300
     53 C10        85.5183   56.1818   39.3751 a2         1 CLA     -0.071900
     54 C11        85.8466   57.1184   40.5820 a2         1 CLA      0.014500
     55 C12        85.2288   56.6765   41.9158 a2         1 CLA     -0.112100
     56 C13        85.2887   57.7849   43.0206 a1         1 CLA      0.089200
     57 C14        86.6203   57.7864   43.7023 a3         1 CLA     -0.239100
     58 C15        84.1172   57.6623   44.0399 a2         1 CLA     -0.102200
     59 C16        82.7437   57.5391   43.5242 a2         1 CLA      0.023900
     60 C17        81.8120   57.7992   44.7065 a2         1 CLA     -0.105700
     61 C18        80.2794   57.8243   44.3771 a1         1 CLA      0.206800
     62 C19        79.4245   57.7580   45.6419 a3         1 CLA     -0.280100
     63 C20        79.8040   59.0912   43.5352 a3         1 CLA     -0.280100
     64 NC         75.5819   59.0161   39.7877 nx         1 CLA     -0.309200
     65 MG         76.8266   59.2762   38.0403 mg         1 CLA      0.895000
     66 HMD3       72.0828   55.6896   37.4037 dc         1 CLA      0.064300
     67 HMD2       71.7935   56.5470   35.8313 dc         1 CLA      0.064300
     68 HMD1       72.6146   54.9692   35.8422 dc         1 CLA      0.064300
     69 HMC3       74.0232   59.2676   43.9587 dc         1 CLA      0.052100
     70 HMC2       75.7924   59.3904   43.8177 dc         1 CLA      0.052100
     71 HMC1       74.8552   60.7533   43.3937 dc         1 CLA      0.052100
     72 HMB3       82.0752   61.3657   40.3128 dc         1 CLA      0.063600
     73 HMB2       81.9312   62.2706   38.7549 dc         1 CLA      0.063600
     74 HMB1       81.4965   63.0778   40.3398 dc         1 CLA      0.063600
     75 HMA3       81.5975   57.5424   35.9652 dc         1 CLA      0.058300
     76 HMA2       82.2529   58.4013   34.5674 dc         1 CLA      0.058300
     77 HMA1       82.3955   59.0480   36.1174 dc         1 CLA      0.058300
     78 HED3       78.1684   53.5309   32.7380 dc         1 CLA      0.079300
     79 HED2       79.1302   53.7099   34.2778 dc         1 CLA      0.079300
     80 HED1       77.5931   52.8517   34.2204 dc         1 CLA      0.079300
     81 HBC3       72.9431   56.6769   43.1599 dc         1 CLA      0.016300
     82 HBC2       71.4098   56.3462   42.1815 dc         1 CLA      0.016300
     83 HBC1       73.0846   56.2488   41.4720 dc         1 CLA      0.016300
     84 HBB2       80.4116   62.8899   43.7775 da         1 CLA      0.183000
     85 HBB1       81.2705   61.9191   42.4179 da         1 CLA      0.183000
     86 HBA2       80.1954   59.2462   30.9322 dc         1 CLA      0.029400
     87 HBA1       81.3522   59.1497   32.2225 dc         1 CLA      0.029400
     88 HAC2       72.1892   58.8862   42.6014 dc         1 CLA      0.029300
     89 HAC1       71.7286   58.3896   41.0126 dc         1 CLA      0.029300
     90 HAA2       78.5039   58.2365   32.4768 dc         1 CLA      0.028700
     91 HAA1       78.9506   59.8938   32.7464 dc         1 CLA      0.028700
     92 H203       80.4613   59.2334   42.7156 dc         1 CLA      0.065600
     93 H202       78.8456   58.9900   43.1777 dc         1 CLA      0.065600
     94 H201       79.8589   59.9103   44.1891 dc         1 CLA      0.065600
     95 H193       78.4353   57.3561   45.4233 dc         1 CLA      0.065600
     96 H192       79.7538   56.9387   46.2685 dc         1 CLA      0.065600
     97 H191       79.2811   58.7033   46.2723 dc         1 CLA      0.065600
     98 H172       82.0111   56.9493   45.3990 dc         1 CLA      0.027600
     99 H171       82.0611   58.7241   45.2472 dc         1 CLA      0.027600
    100 H162       82.5351   58.1698   42.6394 dc         1 CLA      0.002900
    101 H161       82.6691   56.4419   43.2085 dc         1 CLA      0.002900
    102 H152       84.2776   56.7954   44.6689 dc         1 CLA      0.029100
    103 H151       84.0942   58.5242   44.7229 dc         1 CLA      0.029100
    104 H143       86.6128   58.6452   44.3414 dc         1 CLA      0.063600
    105 H142       86.9884   56.9799   44.3378 dc         1 CLA      0.063600
    106 H141       87.3746   57.9855   42.8631 dc         1 CLA      0.063600
    107 H122       84.2438   56.2441   41.6620 dc         1 CLA      0.032500
    108 H121       85.9200   55.8749   42.2815 dc         1 CLA      0.032500
    109 H112       86.9197   57.3993   40.5908 dc         1 CLA      0.006600
    110 H111       85.4526   58.1210   40.3711 dc         1 CLA      0.006600
    111 H102       84.4778   55.8285   39.4247 dc         1 CLA      0.024100
    112 H101       86.1334   55.2867   39.4452 dc         1 CLA      0.024100
    113 HHD        72.7375   57.2643   39.0207 da         1 CLA      0.174300
    114 HHC        76.8238   61.1437   42.0358 da         1 CLA      0.136800
    115 HHB        80.9530   60.8415   37.3289 da         1 CLA      0.138300
    116 HBD        76.4058   57.6809   32.8759 dc         1 CLA      0.107700
    117 HAB        78.3340   62.8374   42.3680 da         1 CLA      0.155200
    118 H93        87.7822   57.8935   38.5262 dc         1 CLA      0.069500
    119 H92        88.1932   56.2144   38.1161 dc         1 CLA      0.069500
    120 H91        87.7700   57.4544   36.9499 dc         1 CLA      0.069500
    121 H8         85.4524   57.6048   37.6804 dc         1 CLA      0.029300
    122 H72        84.7560   55.0807   37.2362 dc         1 CLA      0.044400
    123 H71        86.3842   55.0375   36.6753 dc         1 CLA      0.044400
    124 H62        85.8020   57.1264   35.2077 dc         1 CLA      0.015600
    125 H61        84.1086   56.9685   35.7392 dc         1 CLA      0.015600
    126 H52        85.8044   54.8596   34.3286 dc         1 CLA      0.033200
    127 H51        85.0009   56.0502   33.3077 dc         1 CLA      0.033200
    128 H43        84.6351   53.1247   35.3929 dc         1 CLA      0.037000
    129 H42        83.0685   52.5412   34.6776 dc         1 CLA      0.037000
    130 H41        84.5453   52.8135   33.6279 dc         1 CLA      0.037000
    131 H3A        80.5339   60.1542   34.6309 dc         1 CLA      0.041100
    132 H2A        79.8069   57.3678   34.2794 dc         1 CLA      0.083100
    133 H2         81.8512   55.2236   35.0362 da         1 CLA      0.180900
    134 H18        79.9364   57.1197   43.6650 dc         1 CLA     -0.003900
    135 H13        85.1361   58.7607   42.6086 dc         1 CLA      0.019700
    136 H12        80.7153   54.8837   32.8960 dc         1 CLA      0.120400
    137 H11        82.2337   54.7891   32.0598 dc         1 CLA      0.120400
    138 C1         69.0510   62.1844   49.0524 Z1         2 LUT      0.509236
    139 C2         67.5388   62.1996   49.5834 Z2         2 LUT     -0.434695
    140 C3         66.8907   63.5617   49.7846 Z3         2 LUT      0.437453
    141 O3         67.0921   63.9577   51.1643 S1         2 LUT     -0.547129
    142 C4         67.5916   64.7031   48.9870 Z4         2 LUT     -0.468603
    143 C5         68.3475   64.2556   47.7424 Z5         2 LUT      0.279246
    144 C6         69.1115   63.1306   47.7567 Z6         2 LUT     -0.305473
    145 C7         69.6828   62.4978   46.5211 Z7         2 LUT      0.069402
    146 C8         70.7574   63.0286   45.9031 Z8         2 LUT     -0.191631
    147 C9         71.2798   62.7841   44.5562 Z9         2 LUT      0.196698
    148 C10        72.3355   63.5322   44.1822 Y1         2 LUT     -0.208611
    149 C11        72.9778   63.5601   42.9042 Y2         2 LUT      0.030784
    150 C12        74.1077   64.2696   42.7161 Y3         2 LUT     -0.220316
    151 C13        75.0026   64.2750   41.5816 Y4         2 LUT      0.215937
    152 C14        76.1975   64.9632   41.6538 Y5         2 LUT     -0.185793
    153 C15        77.3635   65.0870   40.7573 Y6         2 LUT     -0.057835
    154 C16        69.4967   60.7218   48.8345 Y7         2 LUT     -0.405615
    155 C17        69.7729   62.8316   50.2611 Y7         2 LUT     -0.405615
    156 C18        67.7906   65.0033   46.5518 Y9         2 LUT     -0.369639
    157 C19        70.4994   61.7815   43.7167 W1         2 LUT     -0.333362
    158 C20        74.6325   63.5679   40.3215 W2         2 LUT     -0.323439
    159 C21        88.2281   65.5143   33.9953 Z1         2 LUT      0.406104
    160 C22        88.9570   65.0405   32.7279 Z2         2 LUT     -0.404965
    161 C23        89.2801   66.2214   31.7783 Z3         2 LUT      0.391255
    162 O23        89.8133   65.5226   30.6492 S1         2 LUT     -0.528210
    163 C24        88.0476   67.0693   31.5024 W6         2 LUT     -0.258361
    164 C25        86.9352   67.0805   32.2605 Z5         2 LUT      0.133546
    165 C26        86.8589   66.2096   33.5875 W8         2 LUT     -0.147008
    166 C27        86.2745   66.9581   34.7247 Z7         2 LUT      0.023843
    167 C28        85.1038   66.6833   35.3106 Z8         2 LUT     -0.216987
    168 C29        84.5200   67.1765   36.6185 Z9         2 LUT      0.206524
    169 C30        83.4248   66.5184   37.1357 Y1         2 LUT     -0.215556
    170 C31        82.7128   66.7016   38.4179 Y2         2 LUT      0.025142
    171 C32        81.5947   65.9486   38.7340 Y3         2 LUT     -0.212209
    172 C33        80.8563   66.0976   39.9549 Y4         2 LUT      0.240937
    173 C34        79.5976   65.4908   39.9547 Y5         2 LUT     -0.218862
    174 C35        78.5490   65.6473   40.9317 Y6         2 LUT     -0.023547
    175 C36        89.1737   66.4816   34.7207 Y7         2 LUT     -0.393485
    176 C37        88.0855   64.3174   34.9566 Y7         2 LUT     -0.393485
    177 C38        85.6529   67.7806   31.8340 Y9         2 LUT     -0.387526
    178 C39        85.1408   68.3492   37.3288 W1         2 LUT     -0.322618
    179 C40        81.3752   66.8993   41.1696 W2         2 LUT     -0.358472
    180 H403       80.6801   67.0517   41.9014 R7         2 LUT      0.097720
    181 H402       82.2815   66.5474   41.5587 R7         2 LUT      0.097720
    182 H401       81.5375   67.8806   40.9591 R7         2 LUT      0.097720
    183 H393       86.2887   68.3118   37.3866 R4         2 LUT      0.082505
    184 H392       84.8738   69.3016   36.9107 R4         2 LUT      0.082505
    185 H391       84.8644   68.4472   38.3714 R4         2 LUT      0.082505
    186 H383       85.8994   68.5615   31.0444 R1         2 LUT      0.104030
    187 H382       84.9554   67.0574   31.4230 R1         2 LUT      0.104030
    188 H381       85.0377   68.2266   32.6250 R1         2 LUT      0.104030
    189 H373       89.0339   63.6993   34.8367 T4         2 LUT      0.089537
    190 H372       87.8683   64.5446   35.9821 T4         2 LUT      0.089537
    191 H371       87.3073   63.7091   34.6691 T4         2 LUT      0.089537
    192 H363       89.0880   67.5878   34.4481 T4         2 LUT      0.089537
    193 H362       88.7987   66.5666   35.7102 T4         2 LUT      0.089537
    194 H361       90.2654   66.2881   34.8640 T4         2 LUT      0.089537
    195 H222       89.8988   64.5160   33.0421 U2         2 LUT      0.127376
    196 H221       88.2807   64.3018   32.2306 U2         2 LUT      0.127376
    197 H203       74.5838   62.5429   40.5754 R7         2 LUT      0.087068
    198 H202       73.6040   63.9049   40.1053 R7         2 LUT      0.087068
    199 H201       75.2602   63.6791   39.3976 R7         2 LUT      0.087068
    200 H193       70.9670   61.5504   42.8327 R4         2 LUT      0.089716
    201 H192       70.2584   60.8405   44.2115 R4         2 LUT      0.089716
    202 H191       69.5769   62.2545   43.3623 R4         2 LUT      0.089716
    203 H183       68.2326   64.6315   45.6209 R1         2 LUT      0.094572
    204 H182       66.7114   64.8667   46.5839 R1         2 LUT      0.094572
    205 H181       68.0678   66.0327   46.7166 R1         2 LUT      0.094572
    206 H173       69.3957   62.4203   51.1914 T4         2 LUT      0.093752
    207 H172       70.8728   62.7066   50.3732 T4         2 LUT      0.093752
    208 H171       69.6011   63.8980   50.4074 T4         2 LUT      0.093752
    209 H163       68.8213   60.3446   48.0271 T4         2 LUT      0.093752
    210 H162       70.5481   60.5602   48.5234 T4         2 LUT      0.093752
    211 H161       69.3797   60.1717   49.7264 T4         2 LUT      0.093752
    212 HO3        66.6870   63.3785   51.8379 Q1         2 LUT      0.300121
    213 H8         71.1710   63.8330   46.4492 U7         2 LUT      0.080784
    214 H7         69.0008   61.8689   45.9158 U6         2 LUT      0.042190
    215 H42        66.7793   65.3759   48.7906 U5         2 LUT      0.145166
    216 H41        68.1975   65.3414   49.7305 U5         2 LUT      0.145166
    217 H35        78.7048   66.2035   41.9633 T3         2 LUT      0.077919
    218 H34        79.3063   64.7682   39.1383 T2         2 LUT      0.073626
    219 H32        81.1316   65.2821   38.0481 T1         2 LUT      0.092510
    220 H31        82.8409   67.4364   39.1671 U9         2 LUT      0.070048
    221 H30        82.9829   65.6371   36.7058 U8         2 LUT      0.085442
    222 H3         65.7729   63.6441   49.6490 U3         2 LUT     -0.031596
    223 H28        84.5194   65.8967   34.8495 U7         2 LUT      0.084728
    224 H27        86.9368   67.6440   35.2373 U6         2 LUT      0.087291
    225 H26        86.1733   65.3868   33.2653 Q6         2 LUT      0.075325
    226 H24        88.1118   67.6550   30.5964 Q5         2 LUT      0.094482
    227 H23        90.1278   66.7500   32.1213 U3         2 LUT     -0.024869
    228 H22        66.8752   61.9043   48.8410 U2         2 LUT      0.127376
    229 H21        67.3932   61.4959   50.4185 U2         2 LUT      0.127376
    230 H15        77.2795   64.6436   39.8504 T3         2 LUT      0.093200
    231 H14        76.3588   65.5187   42.5240 T2         2 LUT      0.068865
    232 H12        74.4745   64.9081   43.5703 T1         2 LUT      0.095507
    233 H11        72.5251   62.8939   42.1923 U9         2 LUT      0.068930
    234 H10        72.7326   64.2226   44.9156 U8         2 LUT      0.083911
    235 H1         90.0516   66.1359   29.9286 Q1         2 LUT      0.297311
@<TRIPOS>BOND
    1     6     1 1
    2     7     2 1
    3     8     3 1
    4     9     4 1
    5    11     4 1
    6    12     6 1
    7    13     9 1
    8    16     9 1
    9    25     5 1
   10    25    16 1
   11    26    10 1
   12    26    17 1
   13    27    18 1
   14    28    14 1
   15    28    19 1
   16    29    12 1
   17    30    13 1
   18    31    24 1
   19    32     1 1
   20    32    25 1
   21    33    21 1
   22    33    26 1
   23    34    22 1
   24    34    27 1
   25    35    23 1
   26    35    28 1
   27    36    12 1
   28    36    24 1
   29    37    13 1
   30    37    15 1
   31    38    31 1
   32    39    20 1
   33    39    32 1
   34    40     2 1
   35    40    33 1
   36    41     3 1
   37    41    34 1
   38    42     4 1
   39    42    35 1
   40    43    38 1
   41    44     5 1
   42    44    17 1
   43    44    39 1
   44    45    10 1
   45    45    18 1
   46    45    40 1
   47    46    19 1
   48    46    41 1
   49    47    14 1
   50    47    16 1
   51    47    42 1
   52    48    38 1
   53    49    48 1
   54    50    49 1
   55    51    50 1
   56    52    51 1
   57    53    51 1
   58    54    53 1
   59    55    54 1
   60    56    55 1
   61    57    56 1
   62    58    56 1
   63    59    58 1
   64    60    59 1
   65    61    60 1
   66    62    61 1
   67    63    61 1
   68    64    27 1
   69    64    46 1
   70    65     5 1
   71    65    10 1
   72    65    64 1
   73    65    14 1
   74    66    23 1
   75    67    23 1
   76    68    23 1
   77    69    22 1
   78    70    22 1
   79    71    22 1
   80    72    21 1
   81    73    21 1
   82    74    21 1
   83    75    20 1
   84    76    20 1
   85    77    20 1
   86    78    15 1
   87    79    15 1
   88    80    15 1
   89    81     8 1
   90    82     8 1
   91    83     8 1
   92    84     7 1
   93    85     7 1
   94    86     6 1
   95    87     6 1
   96    88     3 1
   97    89     3 1
   98    90     1 1
   99    91     1 1
  100    92    63 1
  101    93    63 1
  102    94    63 1
  103    95    62 1
  104    96    62 1
  105    97    62 1
  106    98    60 1
  107    99    60 1
  108   100    59 1
  109   101    59 1
  110   102    58 1
  111   103    58 1
  112   104    57 1
  113   105    57 1
  114   106    57 1
  115   107    55 1
  116   108    55 1
  117   109    54 1
  118   110    54 1
  119   111    53 1
  120   112    53 1
  121   113    19 1
  122   114    18 1
  123   115    17 1
  124   116     9 1
  125   117     2 1
  126   118    52 1
  127   119    52 1
  128   120    52 1
  129   121    51 1
  130   122    50 1
  131   123    50 1
  132   124    49 1
  133   125    49 1
  134   126    48 1
  135   127    48 1
  136   128    43 1
  137   129    43 1
  138   130    43 1
  139   131    39 1
  140   132    32 1
  141   133    31 1
  142   134    61 1
  143   135    56 1
  144   136    24 1
  145   137    24 1
  146   139   138 1
  147   140   139 1
  148   141   140 1
  149   142   140 1
  150   143   142 1
  151   144   138 1
  152   144   143 1
  153   145   144 1
  154   146   145 1
  155   147   146 1
  156   148   147 1
  157   149   148 1
  158   150   149 1
  159   151   150 1
  160   152   151 1
  161   153   152 1
  162   154   138 1
  163   155   138 1
  164   156   143 1
  165   157   147 1
  166   158   151 1
  167   160   159 1
  168   161   160 1
  169   162   161 1
  170   163   161 1
  171   164   163 1
  172   165   159 1
  173   165   164 1
  174   166   165 1
  175   167   166 1
  176   168   167 1
  177   169   168 1
  178   170   169 1
  179   171   170 1
  180   172   171 1
  181   173   172 1
  182   174   153 1
  183   174   173 1
  184   175   159 1
  185   176   159 1
  186   177   164 1
  187   178   168 1
  188   179   172 1
  189   180   179 1
  190   181   179 1
  191   182   179 1
  192   183   178 1
  193   184   178 1
  194   185   178 1
  195   186   177 1
  196   187   177 1
  197   188   177 1
  198   189   176 1
  199   190   176 1
  200   191   176 1
  201   192   175 1
  202   193   175 1
  203   194   175 1
  204   195   160 1
  205   196   160 1
  206   197   158 1
  207   198   158 1
  208   199   158 1
  209   200   157 1
  210   201   157 1
  211   202   157 1
  212   203   156 1
  213   204   156 1
  214   205   156 1
  215   206   155 1
  216   207   155 1
  217   208   155 1
  218   209   154 1
  219   210   154 1
  220   211   154 1
  221   212   141 1
  222   213   146 1
  223   214   145 1
  224   215   142 1
  225   216   142 1
  226   217   174 1
  227   218   173 1
  228   219   171 1
  229   220   170 1
  230   221   169 1
  231   222   140 1
  232   223   167 1
  233   224   166 1
  234   225   165 1
  235   226   163 1
  236   227   161 1
  237   228   139 1
  238   229   139 1
  239   230   153 1
  240   231   152 1
  241   232   150 1
  242   233   149 1
  243   234   148 1
  244   235   162 1
  245   65    153 1
  246   65    174 1
@<TRIPOS>SUBSTRUCTURE
      1 CLA               1 ****               0 ****  **** 
      2 LUT             138 ****               0 ****  **** 
