@<TRIPOS>MOLECULE
Cpptraj generated mol2 file.
  235   246     2     0     0
SMALL
USER_CHARGES


@<TRIPOS>ATOM
      1 CAA        79.4450   58.9656   33.3670 a2         1 CLA     -0.055900
      2 CAB        79.7199   62.5047   42.3794 c8         1 CLA     -0.148500
      3 CAC        72.6753   58.4444   41.9824 a2         1 CLA     -0.012600
      4 CAD        75.2951   56.4191   34.4601 ck         1 CLA      0.398800
      5 NA         78.5499   59.1924   36.7843 ns         1 CLA     -0.225500
      6 CBA        80.6941   58.8982   32.4722 a2         1 CLA     -0.135000
      7 CBB        81.0031   62.7322   42.7609 c0         1 CLA     -0.395200
      8 CBC        72.8305   56.9421   42.3577 a3         1 CLA     -0.037700
      9 CBD        76.7434   56.9661   34.1239 a1         1 CLA     -0.053900
     10 NB         78.4311   60.6979   39.3943 nm         1 CLA     -0.295700
     11 OBD        74.7493   55.6766   33.6802 o2         1 CLA     -0.494600
     12 CGA        81.3967   57.5631   32.0830 c4         1 CLA      0.827000
     13 CGD        77.6565   55.7331   33.7266 c4         1 CLA      0.655300
     14 ND         75.7651   58.3414   37.4175 nm         1 CLA     -0.291600
     15 CED        78.2381   53.5146   34.3296 a3         1 CLA      0.005400
     16 CHA        77.1869   57.9039   35.3153 cs         1 CLA     -0.123800
     17 CHB        80.2471   60.6711   37.7429 aa         1 CLA     -0.291900
     18 CHC        77.1849   60.7235   41.4950 aa         1 CLA     -0.090400
     19 CHD        73.8568   58.2495   38.9050 aa         1 CLA     -0.052000
     20 CMA        82.0576   58.6991   35.9081 a3         1 CLA     -0.230700
     21 CMB        81.6201   62.7315   39.6873 a3         1 CLA     -0.180800
     22 CMC        74.8842   60.3891   43.5016 a3         1 CLA     -0.134000
     23 CMD        72.5676   56.4526   36.6623 a3         1 CLA     -0.141100
     24 C1         82.6005   55.7194   32.9109 a2         1 CLA      0.023000
     25 C1A        78.3472   58.5385   35.6264 ac         1 CLA     -0.015100
     26 C1B        79.6842   61.1143   38.9375 cr         1 CLA      0.054700
     27 C1C        76.0387   60.0465   41.1902 cn         1 CLA     -0.005600
     28 C1D        74.4372   57.9776   37.6496 ap         1 CLA     -0.047300
     29 O1A        81.1904   56.8972   31.1131 o2         1 CLA     -0.610800
     30 O1D        78.6301   55.7916   33.0319 o2         1 CLA     -0.558200
     31 C2         83.2897   55.1315   34.1591 c8         1 CLA     -0.325100
     32 C2A        79.6699   58.5132   34.8290 a1         1 CLA      0.098600
     33 C2B        80.3003   61.8767   39.9318 cb         1 CLA      0.088500
     34 C2C        74.9159   59.8625   42.0413 cb         1 CLA      0.053700
     35 C2D        73.8983   57.1800   36.6093 cb         1 CLA      0.058900
     36 O2A        82.2529   57.1557   33.1205 o1         1 CLA     -0.437200
     37 O2D        77.4202   54.7001   34.6126 o1         1 CLA     -0.357600
     38 C3         84.5520   54.6314   34.1598 c5         1 CLA      0.031200
     39 C3A        80.6707   59.4367   35.5730 a1         1 CLA      0.166800
     40 C3B        79.4842   61.8492   41.0707 cb         1 CLA      0.035000
     41 C3C        73.9743   59.0875   41.4069 cb         1 CLA     -0.089900
     42 C3D        74.9683   57.0602   35.7102 cb         1 CLA     -0.035900
     43 C4         84.8774   53.1288   34.2999 a3         1 CLA     -0.053300
     44 C4A        79.8114   59.7820   36.7644 ac         1 CLA      0.001800
     45 C4B        78.3054   61.0699   40.7318 cn         1 CLA     -0.020900
     46 C4C        74.5279   58.8581   40.0429 cr         1 CLA     -0.044400
     47 C4D        76.0819   57.8155   36.2040 c6         1 CLA     -0.046000
     48 C5         85.8120   55.5787   34.1413 a2         1 CLA     -0.070400
     49 C6         85.9750   56.5671   35.2784 a2         1 CLA      0.043900
     50 C7         86.1705   55.8737   36.6392 a2         1 CLA     -0.150000
     51 C8         86.4245   56.7817   37.8528 a1         1 CLA      0.064200
     52 C9         87.9573   57.1956   37.8626 a3         1 CLA     -0.259300
     53 C10        85.9941   56.1070   39.2041 a2         1 CLA     -0.071900
     54 C11        86.4813   56.7766   40.5217 a2         1 CLA      0.014500
     55 C12        85.5827   56.3757   41.7078 a2         1 CLA     -0.112100
     56 C13        85.8572   56.9929   43.1506 a1         1 CLA      0.089200
     57 C14        87.0591   56.3346   43.8993 a3         1 CLA     -0.239100
     58 C15        84.6012   57.0642   44.1041 a2         1 CLA     -0.102200
     59 C16        83.5749   58.1435   43.5945 a2         1 CLA      0.023900
     60 C17        82.3792   58.4280   44.5909 a2         1 CLA     -0.105700
     61 C18        81.1729   59.2854   44.0955 a1         1 CLA      0.206800
     62 C19        80.0081   58.4543   43.7082 a3         1 CLA     -0.280100
     63 C20        80.7443   60.2573   45.1400 a3         1 CLA     -0.280100
     64 NC         75.7663   59.4721   39.9886 nx         1 CLA     -0.309200
     65 MG         77.0178   59.5530   38.3276 mg         1 CLA      0.895000
     66 HMD3       72.2227   56.1612   37.6819 dc         1 CLA      0.064300
     67 HMD2       71.7384   57.0769   36.2588 dc         1 CLA      0.064300
     68 HMD1       72.6141   55.5948   36.0276 dc         1 CLA      0.064300
     69 HMC3       74.2176   59.7078   44.1069 dc         1 CLA      0.052100
     70 HMC2       75.9071   60.3055   43.9909 dc         1 CLA      0.052100
     71 HMC1       74.7160   61.4835   43.5799 dc         1 CLA      0.052100
     72 HMB3       81.6845   63.0504   38.6472 dc         1 CLA      0.063600
     73 HMB2       81.7930   63.5997   40.3928 dc         1 CLA      0.063600
     74 HMB1       82.4989   62.1598   39.6851 dc         1 CLA      0.063600
     75 HMA3       82.0783   57.7352   36.3095 dc         1 CLA      0.058300
     76 HMA2       82.6240   58.5734   35.0251 dc         1 CLA      0.058300
     77 HMA1       82.5889   59.4907   36.4424 dc         1 CLA      0.058300
     78 HED3       77.9383   52.9543   33.3740 dc         1 CLA      0.079300
     79 HED2       79.2596   53.7568   34.2087 dc         1 CLA      0.079300
     80 HED1       78.2315   52.7884   35.1672 dc         1 CLA      0.079300
     81 HBC3       73.5891   56.8641   43.1573 dc         1 CLA      0.016300
     82 HBC2       71.9490   56.4580   42.7255 dc         1 CLA      0.016300
     83 HBC1       73.2258   56.3803   41.4502 dc         1 CLA      0.016300
     84 HBB2       81.2358   63.0904   43.7545 da         1 CLA      0.183000
     85 HBB1       81.8321   62.2696   42.2224 da         1 CLA      0.183000
     86 HBA2       80.3374   59.2415   31.5087 dc         1 CLA      0.029400
     87 HBA1       81.3990   59.6266   32.8739 dc         1 CLA      0.029400
     88 HAC2       72.3374   58.9985   42.8722 dc         1 CLA      0.029300
     89 HAC1       71.8728   58.5036   41.2157 dc         1 CLA      0.029300
     90 HAA2       78.7185   58.3513   32.9096 dc         1 CLA      0.028700
     91 HAA1       79.1760   60.0062   33.4298 dc         1 CLA      0.028700
     92 H203       81.6128   60.9586   45.2189 dc         1 CLA      0.065600
     93 H202       79.8986   60.9070   44.7749 dc         1 CLA      0.065600
     94 H201       80.4930   59.7458   46.1329 dc         1 CLA      0.065600
     95 H193       79.3076   59.0629   43.2898 dc         1 CLA      0.065600
     96 H192       80.2866   57.6960   42.9415 dc         1 CLA      0.065600
     97 H191       79.6015   57.8748   44.5876 dc         1 CLA      0.065600
     98 H172       82.0860   57.4109   44.8510 dc         1 CLA      0.027600
     99 H171       82.8648   58.9986   45.3959 dc         1 CLA      0.027600
    100 H162       84.1092   59.0858   43.4869 dc         1 CLA      0.002900
    101 H161       83.1568   57.7411   42.6921 dc         1 CLA      0.002900
    102 H152       84.0447   56.1097   44.2897 dc         1 CLA      0.029100
    103 H151       84.9284   57.5673   45.0277 dc         1 CLA      0.029100
    104 H143       87.2425   56.9390   44.8180 dc         1 CLA      0.063600
    105 H142       87.0368   55.3152   43.9892 dc         1 CLA      0.063600
    106 H141       87.9305   56.3897   43.3108 dc         1 CLA      0.063600
    107 H122       84.6144   56.4888   41.3948 dc         1 CLA      0.032500
    108 H121       85.7274   55.2753   41.8528 dc         1 CLA      0.032500
    109 H112       87.5248   56.4899   40.7285 dc         1 CLA      0.006600
    110 H111       86.5013   57.8612   40.4371 dc         1 CLA      0.006600
    111 H102       84.9313   56.0355   39.1938 dc         1 CLA      0.024100
    112 H101       86.3916   55.0944   39.1443 dc         1 CLA      0.024100
    113 HHD        72.7953   57.8543   38.9555 da         1 CLA      0.174300
    114 HHC        77.1856   60.9531   42.5672 da         1 CLA      0.136800
    115 HHB        81.2283   61.0438   37.5811 da         1 CLA      0.138300
    116 HBD        76.5730   57.5814   33.2823 dc         1 CLA      0.107700
    117 HAB        78.8500   62.7017   43.1145 da         1 CLA      0.155200
    118 H93        88.1176   57.8620   38.7414 dc         1 CLA      0.069500
    119 H92        88.4964   56.2964   38.0271 dc         1 CLA      0.069500
    120 H91        88.2962   57.7238   36.9137 dc         1 CLA      0.069500
    121 H8         85.7415   57.5738   37.6634 dc         1 CLA      0.029300
    122 H72        85.2934   55.2718   36.8844 dc         1 CLA      0.044400
    123 H71        86.9489   55.1523   36.5107 dc         1 CLA      0.044400
    124 H62        86.7585   57.2289   35.0029 dc         1 CLA      0.015600
    125 H61        85.0446   57.0983   35.4462 dc         1 CLA      0.015600
    126 H52        86.7110   54.9868   34.0407 dc         1 CLA      0.033200
    127 H51        85.6948   56.3159   33.3547 dc         1 CLA      0.033200
    128 H43        83.9086   52.5659   34.5016 dc         1 CLA      0.037000
    129 H42        85.3345   52.8269   33.3445 dc         1 CLA      0.037000
    130 H41        85.6481   52.9418   34.9776 dc         1 CLA      0.037000
    131 H3A        80.8215   60.3065   35.0034 dc         1 CLA      0.041100
    132 H2A        80.0195   57.4592   34.7538 dc         1 CLA      0.083100
    133 H2         82.8720   55.4512   35.1502 da         1 CLA      0.180900
    134 H18        81.4742   60.0234   43.3789 dc         1 CLA     -0.003900
    135 H13        86.1409   58.0249   43.0002 dc         1 CLA      0.019700
    136 H12        81.7332   55.0891   32.6915 dc         1 CLA      0.120400
    137 H11        83.2014   55.6841   32.0042 dc         1 CLA      0.120400
    138 C1         68.8028   62.0082   49.1632 Z1         2 LUT      0.509236
    139 C2         67.4655   61.8329   49.9848 Z2         2 LUT     -0.434695
    140 C3         66.7373   63.1548   50.0820 Z3         2 LUT      0.437453
    141 O3         66.6444   63.5141   51.4549 S1         2 LUT     -0.547129
    142 C4         67.3454   64.3538   49.4432 Z4         2 LUT     -0.468603
    143 C5         68.0248   64.0858   48.1322 Z5         2 LUT      0.279246
    144 C6         68.7753   62.9727   48.0370 Z6         2 LUT     -0.305473
    145 C7         69.4327   62.4287   46.8124 Z7         2 LUT      0.069402
    146 C8         70.3123   63.0458   45.8975 Z8         2 LUT     -0.191631
    147 C9         70.8762   62.5456   44.6482 Z9         2 LUT      0.196698
    148 C10        71.8411   63.3901   44.0116 Y1         2 LUT     -0.208611
    149 C11        72.6721   63.1881   42.8933 Y2         2 LUT      0.030784
    150 C12        73.8194   63.8099   42.6015 Y3         2 LUT     -0.220316
    151 C13        74.8090   63.6210   41.5341 Y4         2 LUT      0.215937
    152 C14        76.0075   64.2521   41.4635 Y5         2 LUT     -0.185793
    153 C15        77.0256   64.2689   40.4688 Y6         2 LUT     -0.057835
    154 C16        69.4325   60.5606   48.8988 Y7         2 LUT     -0.405615
    155 C17        69.7944   62.5796   50.2076 Y7         2 LUT     -0.405615
    156 C18        67.6292   64.9888   46.9785 Y9         2 LUT     -0.369639
    157 C19        70.3866   61.2621   44.0941 W1         2 LUT     -0.333362
    158 C20        74.1797   63.1829   40.2114 W2         2 LUT     -0.323439
    159 C21        88.6645   66.1063   34.4612 Z1         2 LUT      0.406104
    160 C22        89.4235   65.6144   33.2163 Z2         2 LUT     -0.404965
    161 C23        89.5675   66.5753   32.0279 Z3         2 LUT      0.391255
    162 O23        90.3311   66.0695   30.9415 S1         2 LUT     -0.528210
    163 C24        88.2285   67.2499   31.8495 W6         2 LUT     -0.258361
    164 C25        87.1933   67.2295   32.6784 Z5         2 LUT      0.133546
    165 C26        87.1922   66.4585   33.9721 W8         2 LUT     -0.147008
    166 C27        86.3815   67.0544   35.0436 Z7         2 LUT      0.023843
    167 C28        85.3684   66.4688   35.7055 Z8         2 LUT     -0.216987
    168 C29        84.6066   66.8956   36.9098 Z9         2 LUT      0.206524
    169 C30        83.3922   66.2998   37.2298 Y1         2 LUT     -0.215556
    170 C31        82.6223   66.5099   38.4745 Y2         2 LUT      0.025142
    171 C32        81.3549   65.8685   38.6620 Y3         2 LUT     -0.212209
    172 C33        80.4439   65.8601   39.8896 Y4         2 LUT      0.240937
    173 C34        79.2068   65.2157   39.8293 Y5         2 LUT     -0.218862
    174 C35        78.0734   65.1368   40.7005 Y6         2 LUT     -0.023547
    175 C36        89.5289   67.1617   35.2481 Y7         2 LUT     -0.393485
    176 C37        88.6293   64.8793   35.4139 Y7         2 LUT     -0.393485
    177 C38        85.8702   68.0115   32.2941 Y9         2 LUT     -0.387526
    178 C39        85.3310   67.8918   37.7656 W1         2 LUT     -0.322618
    179 C40        80.8504   66.4400   41.2591 W2         2 LUT     -0.358472
    180 H403       81.8600   66.1842   41.4477 R7         2 LUT      0.097720
    181 H402       80.8847   67.5328   41.2176 R7         2 LUT      0.097720
    182 H401       80.3109   66.0895   42.0912 R7         2 LUT      0.097720
    183 H393       85.3263   67.4999   38.7882 R4         2 LUT      0.082505
    184 H392       86.3850   68.0683   37.5734 R4         2 LUT      0.082505
    185 H391       84.7781   68.8154   37.7700 R4         2 LUT      0.082505
    186 H383       85.7567   68.2664   31.2737 R1         2 LUT      0.104030
    187 H382       84.9529   67.5924   32.5743 R1         2 LUT      0.104030
    188 H381       86.0091   68.9952   32.7867 R1         2 LUT      0.104030
    189 H373       89.5757   64.7033   35.7862 T4         2 LUT      0.089537
    190 H372       87.9818   64.9673   36.3038 T4         2 LUT      0.089537
    191 H371       88.4365   63.9257   34.9770 T4         2 LUT      0.089537
    192 H363       89.8405   68.0005   34.6292 T4         2 LUT      0.089537
    193 H362       89.0152   67.5242   36.1754 T4         2 LUT      0.089537
    194 H361       90.4773   66.7152   35.6533 T4         2 LUT      0.089537
    195 H222       90.4681   65.2346   33.4774 U2         2 LUT      0.127376
    196 H221       88.9662   64.6201   32.9106 U2         2 LUT      0.127376
    197 H203       74.8993   63.0544   39.4238 R7         2 LUT      0.087068
    198 H202       73.6493   62.2512   40.2548 R7         2 LUT      0.087068
    199 H201       73.4253   63.8139   39.8022 R7         2 LUT      0.087068
    200 H193       70.9160   61.1330   43.1226 R4         2 LUT      0.089716
    201 H192       70.5900   60.3652   44.7674 R4         2 LUT      0.089716
    202 H191       69.3203   61.1935   43.9177 R4         2 LUT      0.089716
    203 H183       66.5192   65.0506   47.0214 R1         2 LUT      0.094572
    204 H182       68.1372   66.0085   47.1310 R1         2 LUT      0.094572
    205 H181       67.9624   64.6230   45.9842 R1         2 LUT      0.094572
    206 H173       69.8585   63.6641   50.2209 T4         2 LUT      0.093752
    207 H172       69.5536   62.3109   51.2137 T4         2 LUT      0.093752
    208 H171       70.8421   62.3114   50.0835 T4         2 LUT      0.093752
    209 H163       68.9332   59.9694   48.1037 T4         2 LUT      0.093752
    210 H162       70.5106   60.6300   48.8362 T4         2 LUT      0.093752
    211 H161       69.2969   59.9630   49.8076 T4         2 LUT      0.093752
    212 HO3        65.9329   62.9954   51.9343 Q1         2 LUT      0.300121
    213 H8         70.5814   64.0549   46.1565 U7         2 LUT      0.080784
    214 H7         69.4119   61.3785   46.5949 U6         2 LUT      0.042190
    215 H42        66.5654   65.1545   49.3003 U5         2 LUT      0.145166
    216 H41        67.9833   64.9497   50.1843 U5         2 LUT      0.145166
    217 H35        78.0062   65.8348   41.5278 T3         2 LUT      0.077919
    218 H34        78.9664   64.5586   38.9509 T2         2 LUT      0.073626
    219 H32        80.9905   65.2201   37.8787 T1         2 LUT      0.092510
    220 H31        83.0481   67.1580   39.2575 U9         2 LUT      0.070048
    221 H30        82.9699   65.4803   36.5939 U8         2 LUT      0.085442
    222 H3         65.7592   62.9804   49.5960 U3         2 LUT     -0.031596
    223 H28        84.9331   65.6525   35.1656 U7         2 LUT      0.084728
    224 H27        86.7796   68.0435   35.3078 U6         2 LUT      0.087291
    225 H26        86.5460   65.6397   33.6163 Q6         2 LUT      0.075325
    226 H24        87.9962   67.7452   30.9369 Q5         2 LUT      0.094482
    227 H23        90.2206   67.2658   32.5104 U3         2 LUT     -0.024869
    228 H22        66.7924   61.2198   49.3761 U2         2 LUT      0.127376
    229 H21        67.4643   61.1642   50.8897 U2         2 LUT      0.127376
    230 H15        76.8864   63.5480   39.6716 T3         2 LUT      0.093200
    231 H14        76.1581   64.9651   42.3156 T2         2 LUT      0.068865
    232 H12        74.1654   64.5989   43.3312 T1         2 LUT      0.095507
    233 H11        72.4352   62.3278   42.2628 U9         2 LUT      0.068930
    234 H10        71.9434   64.4062   44.3917 U8         2 LUT      0.083911
    235 H1         89.7130   65.5364   30.3532 Q1         2 LUT      0.297311
@<TRIPOS>BOND
    1     6     1 1
    2     7     2 1
    3     8     3 1
    4     9     4 1
    5    11     4 1
    6    12     6 1
    7    13     9 1
    8    16     9 1
    9    25     5 1
   10    25    16 1
   11    26    10 1
   12    26    17 1
   13    27    18 1
   14    28    14 1
   15    28    19 1
   16    29    12 1
   17    30    13 1
   18    31    24 1
   19    32     1 1
   20    32    25 1
   21    33    21 1
   22    33    26 1
   23    34    22 1
   24    34    27 1
   25    35    23 1
   26    35    28 1
   27    36    12 1
   28    36    24 1
   29    37    13 1
   30    37    15 1
   31    38    31 1
   32    39    20 1
   33    39    32 1
   34    40     2 1
   35    40    33 1
   36    41     3 1
   37    41    34 1
   38    42     4 1
   39    42    35 1
   40    43    38 1
   41    44     5 1
   42    44    17 1
   43    44    39 1
   44    45    10 1
   45    45    18 1
   46    45    40 1
   47    46    19 1
   48    46    41 1
   49    47    14 1
   50    47    16 1
   51    47    42 1
   52    48    38 1
   53    49    48 1
   54    50    49 1
   55    51    50 1
   56    52    51 1
   57    53    51 1
   58    54    53 1
   59    55    54 1
   60    56    55 1
   61    57    56 1
   62    58    56 1
   63    59    58 1
   64    60    59 1
   65    61    60 1
   66    62    61 1
   67    63    61 1
   68    64    27 1
   69    64    46 1
   70    65     5 1
   71    65    10 1
   72    65    64 1
   73    65    14 1
   74    66    23 1
   75    67    23 1
   76    68    23 1
   77    69    22 1
   78    70    22 1
   79    71    22 1
   80    72    21 1
   81    73    21 1
   82    74    21 1
   83    75    20 1
   84    76    20 1
   85    77    20 1
   86    78    15 1
   87    79    15 1
   88    80    15 1
   89    81     8 1
   90    82     8 1
   91    83     8 1
   92    84     7 1
   93    85     7 1
   94    86     6 1
   95    87     6 1
   96    88     3 1
   97    89     3 1
   98    90     1 1
   99    91     1 1
  100    92    63 1
  101    93    63 1
  102    94    63 1
  103    95    62 1
  104    96    62 1
  105    97    62 1
  106    98    60 1
  107    99    60 1
  108   100    59 1
  109   101    59 1
  110   102    58 1
  111   103    58 1
  112   104    57 1
  113   105    57 1
  114   106    57 1
  115   107    55 1
  116   108    55 1
  117   109    54 1
  118   110    54 1
  119   111    53 1
  120   112    53 1
  121   113    19 1
  122   114    18 1
  123   115    17 1
  124   116     9 1
  125   117     2 1
  126   118    52 1
  127   119    52 1
  128   120    52 1
  129   121    51 1
  130   122    50 1
  131   123    50 1
  132   124    49 1
  133   125    49 1
  134   126    48 1
  135   127    48 1
  136   128    43 1
  137   129    43 1
  138   130    43 1
  139   131    39 1
  140   132    32 1
  141   133    31 1
  142   134    61 1
  143   135    56 1
  144   136    24 1
  145   137    24 1
  146   139   138 1
  147   140   139 1
  148   141   140 1
  149   142   140 1
  150   143   142 1
  151   144   138 1
  152   144   143 1
  153   145   144 1
  154   146   145 1
  155   147   146 1
  156   148   147 1
  157   149   148 1
  158   150   149 1
  159   151   150 1
  160   152   151 1
  161   153   152 1
  162   154   138 1
  163   155   138 1
  164   156   143 1
  165   157   147 1
  166   158   151 1
  167   160   159 1
  168   161   160 1
  169   162   161 1
  170   163   161 1
  171   164   163 1
  172   165   159 1
  173   165   164 1
  174   166   165 1
  175   167   166 1
  176   168   167 1
  177   169   168 1
  178   170   169 1
  179   171   170 1
  180   172   171 1
  181   173   172 1
  182   174   153 1
  183   174   173 1
  184   175   159 1
  185   176   159 1
  186   177   164 1
  187   178   168 1
  188   179   172 1
  189   180   179 1
  190   181   179 1
  191   182   179 1
  192   183   178 1
  193   184   178 1
  194   185   178 1
  195   186   177 1
  196   187   177 1
  197   188   177 1
  198   189   176 1
  199   190   176 1
  200   191   176 1
  201   192   175 1
  202   193   175 1
  203   194   175 1
  204   195   160 1
  205   196   160 1
  206   197   158 1
  207   198   158 1
  208   199   158 1
  209   200   157 1
  210   201   157 1
  211   202   157 1
  212   203   156 1
  213   204   156 1
  214   205   156 1
  215   206   155 1
  216   207   155 1
  217   208   155 1
  218   209   154 1
  219   210   154 1
  220   211   154 1
  221   212   141 1
  222   213   146 1
  223   214   145 1
  224   215   142 1
  225   216   142 1
  226   217   174 1
  227   218   173 1
  228   219   171 1
  229   220   170 1
  230   221   169 1
  231   222   140 1
  232   223   167 1
  233   224   166 1
  234   225   165 1
  235   226   163 1
  236   227   161 1
  237   228   139 1
  238   229   139 1
  239   230   153 1
  240   231   152 1
  241   232   150 1
  242   233   149 1
  243   234   148 1
  244   235   162 1
  245   65    153 1
  246   65    174 1
@<TRIPOS>SUBSTRUCTURE
      1 CLA               1 ****               0 ****  **** 
      2 LUT             138 ****               0 ****  **** 
