@<TRIPOS>MOLECULE
Cpptraj generated mol2 file.
  235   246     2     0     0
SMALL
USER_CHARGES


@<TRIPOS>ATOM
      1 CAA        77.7012   58.8718   35.7814 a2         1 CLA     -0.055900
      2 CAB        77.4130   62.2794   44.6429 c8         1 CLA     -0.148500
      3 CAC        70.7507   57.7312   44.0316 a2         1 CLA     -0.012600
      4 CAD        73.5530   55.8863   36.7266 ck         1 CLA      0.398800
      5 NA         76.5537   58.9062   39.0362 ns         1 CLA     -0.225500
      6 CBA        78.9295   58.7079   34.8231 a2         1 CLA     -0.135000
      7 CBB        76.3301   62.8272   45.2331 c0         1 CLA     -0.395200
      8 CBC        70.7061   56.2084   43.9812 a3         1 CLA     -0.037700
      9 CBD        75.0263   56.5117   36.3752 a1         1 CLA     -0.053900
     10 NB         76.3557   60.3630   41.5794 nm         1 CLA     -0.295700
     11 OBD        73.0596   54.9247   36.0917 o2         1 CLA     -0.494600
     12 CGA        79.3891   57.2618   34.4810 c4         1 CLA      0.827000
     13 CGD        76.0404   55.4323   36.0993 c4         1 CLA      0.655300
     14 ND         73.8200   57.9974   39.5092 nm         1 CLA     -0.291600
     15 CED        76.9502   53.3391   36.7947 a3         1 CLA      0.005400
     16 CHA        75.2837   57.4099   37.5774 cs         1 CLA     -0.123800
     17 CHB        78.3525   60.2889   40.1014 aa         1 CLA     -0.291900
     18 CHC        75.0566   60.3283   43.5972 aa         1 CLA     -0.090400
     19 CHD        71.9647   57.6198   41.0321 aa         1 CLA     -0.052000
     20 CMA        79.8818   58.0922   38.6253 a3         1 CLA     -0.230700
     21 CMB        79.6614   62.2023   42.3853 a3         1 CLA     -0.180800
     22 CMC        72.9595   59.6259   45.6870 a3         1 CLA     -0.134000
     23 CMD        70.7259   55.8628   38.8790 a3         1 CLA     -0.141100
     24 C1         80.3822   55.2993   35.2411 a2         1 CLA      0.023000
     25 C1A        76.4492   58.0932   37.8966 ac         1 CLA     -0.015100
     26 C1B        77.6833   60.7336   41.2642 cr         1 CLA      0.054700
     27 C1C        73.9212   59.5414   43.3076 cn         1 CLA     -0.005600
     28 C1D        72.5514   57.5132   39.8243 ap         1 CLA     -0.047300
     29 O1A        79.1952   56.6817   33.4167 o2         1 CLA     -0.610800
     30 O1D        76.9172   55.5796   35.2751 o2         1 CLA     -0.558200
     31 C2         80.9303   54.7201   36.4711 c8         1 CLA     -0.325100
     32 C2A        77.8015   58.1607   37.1817 a1         1 CLA      0.098600
     33 C2B        78.3093   61.4949   42.3788 cb         1 CLA      0.088500
     34 C2C        72.9081   59.2349   44.2366 cb         1 CLA      0.053700
     35 C2D        72.0245   56.6411   38.7925 cb         1 CLA      0.058900
     36 O2A        80.0361   56.6674   35.5446 o1         1 CLA     -0.437200
     37 O2D        75.9337   54.3896   36.9230 o1         1 CLA     -0.357600
     38 C3         82.2200   54.5593   36.7303 c5         1 CLA      0.031200
     39 C3A        78.7716   58.9731   38.0994 a1         1 CLA      0.166800
     40 C3B        77.3063   61.5805   43.3627 cb         1 CLA      0.035000
     41 C3C        71.9989   58.3473   43.5574 cb         1 CLA     -0.089900
     42 C3D        73.0766   56.5719   37.9332 cb         1 CLA     -0.035900
     43 C4         83.1014   53.7270   35.8582 a3         1 CLA     -0.053300
     44 C4A        77.8361   59.3885   39.1407 ac         1 CLA      0.001800
     45 C4B        76.1777   60.7282   42.8556 cn         1 CLA     -0.020900
     46 C4C        72.4712   58.3081   42.1684 cr         1 CLA     -0.044400
     47 C4D        74.1058   57.4225   38.3698 c6         1 CLA     -0.046000
     48 C5         82.8482   55.5259   37.7475 a2         1 CLA     -0.070400
     49 C6         83.9573   54.9077   38.6294 a2         1 CLA      0.043900
     50 C7         84.1249   55.8115   39.9782 a2         1 CLA     -0.150000
     51 C8         84.2068   57.3600   39.7641 a1         1 CLA      0.064200
     52 C9         85.5446   57.6892   39.1194 a3         1 CLA     -0.259300
     53 C10        84.2092   58.0577   41.0784 a2         1 CLA     -0.071900
     54 C11        82.8162   57.9882   41.7496 a2         1 CLA      0.014500
     55 C12        82.4673   59.1009   42.7628 a2         1 CLA     -0.112100
     56 C13        83.4083   59.4876   43.9124 a1         1 CLA      0.089200
     57 C14        83.7498   58.2880   44.8811 a3         1 CLA     -0.239100
     58 C15        83.0343   60.8555   44.5305 a2         1 CLA     -0.102200
     59 C16        83.8784   61.3584   45.7317 a2         1 CLA      0.023900
     60 C17        83.7959   62.9365   45.9890 a2         1 CLA     -0.105700
     61 C18        84.3329   63.2983   47.4423 a1         1 CLA      0.206800
     62 C19        84.4964   64.8466   47.5592 a3         1 CLA     -0.280100
     63 C20        83.5700   62.6688   48.5485 a3         1 CLA     -0.280100
     64 NC         73.6268   59.0516   42.0745 nx         1 CLA     -0.309200
     65 MG         75.0259   59.2481   40.4561 mg         1 CLA      0.895000
     66 HMD3       69.8381   56.4230   38.5201 dc         1 CLA      0.064300
     67 HMD2       70.9064   54.9553   38.2849 dc         1 CLA      0.064300
     68 HMD1       70.4842   55.6382   39.8959 dc         1 CLA      0.064300
     69 HMC3       73.8675   59.3783   46.1963 dc         1 CLA      0.052100
     70 HMC2       72.8241   60.6210   45.9967 dc         1 CLA      0.052100
     71 HMC1       72.1239   59.0782   46.2292 dc         1 CLA      0.052100
     72 HMB3       79.5537   63.1567   42.9099 dc         1 CLA      0.063600
     73 HMB2       80.4659   61.6176   42.8269 dc         1 CLA      0.063600
     74 HMB1       80.0324   62.4133   41.3395 dc         1 CLA      0.063600
     75 HMA3       79.3187   57.1915   38.8513 dc         1 CLA      0.058300
     76 HMA2       80.5385   57.9575   37.8080 dc         1 CLA      0.058300
     77 HMA1       80.2417   58.5536   39.5072 dc         1 CLA      0.058300
     78 HED3       76.7399   52.4512   37.3769 dc         1 CLA      0.079300
     79 HED2       76.9956   53.1935   35.7182 dc         1 CLA      0.079300
     80 HED1       77.8435   53.7893   37.1442 dc         1 CLA      0.079300
     81 HBC3       71.3612   55.8813   44.7393 dc         1 CLA      0.016300
     82 HBC2       69.6375   56.0101   44.1580 dc         1 CLA      0.016300
     83 HBC1       71.0399   55.7752   43.0145 dc         1 CLA      0.016300
     84 HBB2       76.4169   63.3313   46.2052 da         1 CLA      0.183000
     85 HBB1       75.4012   62.6791   44.7279 da         1 CLA      0.183000
     86 HBA2       78.6032   59.2929   33.9185 dc         1 CLA      0.029400
     87 HBA1       79.7432   59.1773   35.3557 dc         1 CLA      0.029400
     88 HAC2       70.4771   58.0839   45.0295 dc         1 CLA      0.029300
     89 HAC1       69.8997   58.0933   43.4712 dc         1 CLA      0.029300
     90 HAA2       76.8175   58.4931   35.3393 dc         1 CLA      0.028700
     91 HAA1       77.5069   59.9688   35.9338 dc         1 CLA      0.028700
     92 H203       83.5636   63.1607   49.5470 dc         1 CLA      0.065600
     93 H202       82.5196   62.7468   48.3900 dc         1 CLA      0.065600
     94 H201       83.8558   61.6918   48.6051 dc         1 CLA      0.065600
     95 H193       85.1027   65.1559   46.7227 dc         1 CLA      0.065600
     96 H192       83.6252   65.4307   47.5985 dc         1 CLA      0.065600
     97 H191       85.1739   65.0193   48.3844 dc         1 CLA      0.065600
     98 H172       84.4418   63.3956   45.1962 dc         1 CLA      0.027600
     99 H171       82.7798   63.3073   45.8293 dc         1 CLA      0.027600
    100 H162       83.5625   60.7269   46.5143 dc         1 CLA      0.002900
    101 H161       84.8838   61.0545   45.5069 dc         1 CLA      0.002900
    102 H152       83.0106   61.5674   43.7109 dc         1 CLA      0.029100
    103 H151       82.0150   60.7941   44.8197 dc         1 CLA      0.029100
    104 H143       84.6765   58.5628   45.3733 dc         1 CLA      0.063600
    105 H142       82.9792   58.2562   45.5876 dc         1 CLA      0.063600
    106 H141       83.8204   57.3893   44.3127 dc         1 CLA      0.063600
    107 H122       82.2558   60.0456   42.2073 dc         1 CLA      0.032500
    108 H121       81.5841   58.8077   43.3594 dc         1 CLA      0.032500
    109 H112       82.0884   57.8938   40.9876 dc         1 CLA      0.006600
    110 H111       82.8777   56.9962   42.2360 dc         1 CLA      0.006600
    111 H102       84.9580   57.5308   41.7176 dc         1 CLA      0.024100
    112 H101       84.3736   59.1372   41.0485 dc         1 CLA      0.024100
    113 HHD        70.9991   57.2315   41.1829 da         1 CLA      0.174300
    114 HHC        75.0305   60.7021   44.5889 da         1 CLA      0.136800
    115 HHB        79.3741   60.6528   40.0646 da         1 CLA      0.138300
    116 HBD        74.8977   57.2459   35.6405 dc         1 CLA      0.107700
    117 HAB        78.3963   62.6110   45.0564 da         1 CLA      0.155200
    118 H93        86.3586   57.4341   39.7705 dc         1 CLA      0.069500
    119 H92        85.7153   57.0647   38.2032 dc         1 CLA      0.069500
    120 H91        85.5511   58.7898   39.0436 dc         1 CLA      0.069500
    121 H8         83.3936   57.7228   39.2239 dc         1 CLA      0.029300
    122 H72        83.3924   55.4624   40.7301 dc         1 CLA      0.044400
    123 H71        85.0302   55.3843   40.4015 dc         1 CLA      0.044400
    124 H62        83.7079   53.8720   38.8470 dc         1 CLA      0.015600
    125 H61        84.9237   54.9944   38.0998 dc         1 CLA      0.015600
    126 H52        83.1671   56.4716   37.3548 dc         1 CLA      0.033200
    127 H51        82.0703   55.8393   38.4232 dc         1 CLA      0.033200
    128 H43        82.4765   53.3101   35.0324 dc         1 CLA      0.037000
    129 H42        84.0218   54.2770   35.6527 dc         1 CLA      0.037000
    130 H41        83.4685   53.0051   36.5962 dc         1 CLA      0.037000
    131 H3A        79.3539   59.8069   37.5836 dc         1 CLA      0.041100
    132 H2A        78.1242   57.1026   37.0257 dc         1 CLA      0.083100
    133 H2         80.3206   53.9595   37.0327 da         1 CLA      0.180900
    134 H18        85.3603   62.9111   47.4595 dc         1 CLA     -0.003900
    135 H13        84.3208   59.6066   43.3458 dc         1 CLA      0.019700
    136 H12        79.5498   54.7500   34.8714 dc         1 CLA      0.120400
    137 H11        81.1982   55.3730   34.4298 dc         1 CLA      0.120400
    138 C1         66.7377   61.3086   51.3181 Z1         2 LUT      0.509236
    139 C2         66.6585   62.3983   52.4054 Z2         2 LUT     -0.434695
    140 C3         65.4478   63.3287   52.2135 Z3         2 LUT      0.437453
    141 O3         65.8310   64.5472   52.9003 S1         2 LUT     -0.547129
    142 C4         65.1809   63.7093   50.7540 Z4         2 LUT     -0.468603
    143 C5         66.0108   63.0917   49.6733 Z5         2 LUT      0.279246
    144 C6         66.6491   61.9296   49.8932 Z6         2 LUT     -0.305473
    145 C7         67.5714   61.3136   48.8363 Z7         2 LUT      0.069402
    146 C8         68.4629   61.9708   48.0970 Z8         2 LUT     -0.191631
    147 C9         69.1508   61.5176   46.8437 Z9         2 LUT      0.196698
    148 C10        70.0476   62.4018   46.2933 Y1         2 LUT     -0.208611
    149 C11        70.7927   62.4054   44.9963 Y2         2 LUT      0.030784
    150 C12        71.6822   63.4039   44.6882 Y3         2 LUT     -0.220316
    151 C13        72.4542   63.3572   43.4794 Y4         2 LUT      0.215937
    152 C14        73.5621   64.1809   43.4367 Y5         2 LUT     -0.185793
    153 C15        74.5760   64.1859   42.3919 Y6         2 LUT     -0.057835
    154 C16        65.6024   60.2649   51.4415 Y7         2 LUT     -0.405615
    155 C17        67.9784   60.5180   51.6032 Y7         2 LUT     -0.405615
    156 C18        66.0544   63.9711   48.4231 Y9         2 LUT     -0.369639
    157 C19        68.9348   60.1475   46.3792 W1         2 LUT     -0.333362
    158 C20        71.9141   62.6973   42.2806 W2         2 LUT     -0.323439
    159 C21        86.0829   65.4083   36.3695 Z1         2 LUT      0.406104
    160 C22        86.7969   64.8080   35.2230 Z2         2 LUT     -0.404965
    161 C23        86.9546   65.6286   33.9794 Z3         2 LUT      0.391255
    162 O23        86.9272   64.6474   32.9111 S1         2 LUT     -0.528210
    163 C24        85.8027   66.5372   33.7279 W6         2 LUT     -0.258361
    164 C25        84.7214   66.6145   34.4958 Z5         2 LUT      0.133546
    165 C26        84.6429   65.7912   35.8198 W8         2 LUT     -0.147008
    166 C27        83.8488   66.4327   36.9143 Z7         2 LUT      0.023843
    167 C28        82.6066   66.0969   37.4486 Z8         2 LUT     -0.216987
    168 C29        82.0252   66.6021   38.6676 Z9         2 LUT      0.206524
    169 C30        80.9765   65.8409   39.0351 Y1         2 LUT     -0.215556
    170 C31        80.2422   65.8562   40.3160 Y2         2 LUT      0.025142
    171 C32        79.1164   65.1172   40.6655 Y3         2 LUT     -0.212209
    172 C33        78.1608   65.3893   41.7181 Y4         2 LUT      0.240937
    173 C34        76.8792   64.8452   41.5499 Y5         2 LUT     -0.218862
    174 C35        75.7955   64.8991   42.4887 Y6         2 LUT     -0.023547
    175 C36        87.0090   66.5268   36.7910 Y7         2 LUT     -0.393485
    176 C37        86.1559   64.3767   37.5312 Y7         2 LUT     -0.393485
    177 C38        83.6860   67.5849   33.9954 Y9         2 LUT     -0.387526
    178 C39        82.6318   67.6481   39.5570 W1         2 LUT     -0.322618
    179 C40        78.5775   66.0744   43.0026 W2         2 LUT     -0.358472
    180 H403       78.2102   67.0854   43.2090 R7         2 LUT      0.097720
    181 H402       78.1951   65.5692   43.8686 R7         2 LUT      0.097720
    182 H401       79.7181   66.1308   43.0721 R7         2 LUT      0.097720
    183 H393       82.0731   68.1046   40.3682 R4         2 LUT      0.082505
    184 H392       83.4786   67.1814   40.0613 R4         2 LUT      0.082505
    185 H391       83.0850   68.4618   39.0607 R4         2 LUT      0.082505
    186 H383       84.0603   68.2365   33.1555 R1         2 LUT      0.104030
    187 H382       82.7475   67.0963   33.5610 R1         2 LUT      0.104030
    188 H381       83.3007   68.2651   34.7916 R1         2 LUT      0.104030
    189 H373       87.0904   63.8545   37.5252 T4         2 LUT      0.089537
    190 H372       85.9446   64.8332   38.5020 T4         2 LUT      0.089537
    191 H371       85.4459   63.5483   37.4308 T4         2 LUT      0.089537
    192 H363       88.0966   66.1934   37.0492 T4         2 LUT      0.089537
    193 H362       87.1608   67.2908   36.0075 T4         2 LUT      0.089537
    194 H361       86.6003   67.1076   37.6592 T4         2 LUT      0.089537
    195 H222       87.8258   64.5821   35.5312 U2         2 LUT      0.127376
    196 H221       86.2740   63.8813   34.9438 U2         2 LUT      0.127376
    197 H203       71.9296   63.3103   41.3911 R7         2 LUT      0.087068
    198 H202       72.4527   61.8358   41.9698 R7         2 LUT      0.087068
    199 H201       70.8269   62.5634   42.3710 R7         2 LUT      0.087068
    200 H193       69.0385   59.4964   47.2928 R4         2 LUT      0.089716
    201 H192       67.9506   60.0634   45.8832 R4         2 LUT      0.089716
    202 H191       69.6930   59.8766   45.6265 R4         2 LUT      0.089716
    203 H183       66.2117   63.3754   47.4439 R1         2 LUT      0.094572
    204 H182       65.1872   64.6036   48.2401 R1         2 LUT      0.094572
    205 H181       66.8983   64.6324   48.4708 R1         2 LUT      0.094572
    206 H173       68.7895   61.1661   51.3086 T4         2 LUT      0.093752
    207 H172       67.9094   60.2016   52.6509 T4         2 LUT      0.093752
    208 H171       68.0135   59.5820   50.9662 T4         2 LUT      0.093752
    209 H163       65.6873   59.3946   50.7084 T4         2 LUT      0.093752
    210 H162       65.6193   59.7159   52.3646 T4         2 LUT      0.093752
    211 H161       64.6715   60.7774   51.1658 T4         2 LUT      0.093752
    212 HO3        65.1010   64.9647   53.3900 Q1         2 LUT      0.300121
    213 H8         68.4669   63.0088   48.2985 U7         2 LUT      0.080784
    214 H7         67.3084   60.2765   48.6289 U6         2 LUT      0.042190
    215 H42        64.1255   63.5812   50.5021 U5         2 LUT      0.145166
    216 H41        65.2648   64.7990   50.7994 U5         2 LUT      0.145166
    217 H35        75.9806   65.4261   43.4127 T3         2 LUT      0.077919
    218 H34        76.7749   63.9913   40.7852 T2         2 LUT      0.073626
    219 H32        78.7517   64.4192   39.9023 T1         2 LUT      0.092510
    220 H31        80.3746   66.7616   40.9451 U9         2 LUT      0.070048
    221 H30        80.5819   65.0907   38.3246 U8         2 LUT      0.085442
    222 H3         64.5625   62.8308   52.6340 U3         2 LUT     -0.031596
    223 H28        81.9485   65.4015   36.8135 U7         2 LUT      0.084728
    224 H27        84.4686   67.1408   37.4096 U6         2 LUT      0.087291
    225 H26        84.0486   64.9380   35.6816 Q6         2 LUT      0.075325
    226 H24        85.9815   67.2075   32.8305 Q5         2 LUT      0.094482
    227 H23        87.9261   66.1274   34.0517 U3         2 LUT     -0.024869
    228 H22        66.5139   62.1175   53.4199 U2         2 LUT      0.127376
    229 H21        67.5682   62.9845   52.4720 U2         2 LUT      0.127376
    230 H15        74.4649   63.5022   41.5117 T3         2 LUT      0.093200
    231 H14        73.8445   64.7975   44.2511 T2         2 LUT      0.068865
    232 H12        71.6969   64.1825   45.5208 T1         2 LUT      0.095507
    233 H11        70.4792   61.5808   44.3456 U9         2 LUT      0.068930
    234 H10        70.0355   63.3684   46.9343 U8         2 LUT      0.083911
    235 H1         87.3364   64.9897   32.1371 Q1         2 LUT      0.297311
@<TRIPOS>BOND
    1     6     1 1
    2     7     2 1
    3     8     3 1
    4     9     4 1
    5    11     4 1
    6    12     6 1
    7    13     9 1
    8    16     9 1
    9    25     5 1
   10    25    16 1
   11    26    10 1
   12    26    17 1
   13    27    18 1
   14    28    14 1
   15    28    19 1
   16    29    12 1
   17    30    13 1
   18    31    24 1
   19    32     1 1
   20    32    25 1
   21    33    21 1
   22    33    26 1
   23    34    22 1
   24    34    27 1
   25    35    23 1
   26    35    28 1
   27    36    12 1
   28    36    24 1
   29    37    13 1
   30    37    15 1
   31    38    31 1
   32    39    20 1
   33    39    32 1
   34    40     2 1
   35    40    33 1
   36    41     3 1
   37    41    34 1
   38    42     4 1
   39    42    35 1
   40    43    38 1
   41    44     5 1
   42    44    17 1
   43    44    39 1
   44    45    10 1
   45    45    18 1
   46    45    40 1
   47    46    19 1
   48    46    41 1
   49    47    14 1
   50    47    16 1
   51    47    42 1
   52    48    38 1
   53    49    48 1
   54    50    49 1
   55    51    50 1
   56    52    51 1
   57    53    51 1
   58    54    53 1
   59    55    54 1
   60    56    55 1
   61    57    56 1
   62    58    56 1
   63    59    58 1
   64    60    59 1
   65    61    60 1
   66    62    61 1
   67    63    61 1
   68    64    27 1
   69    64    46 1
   70    65     5 1
   71    65    10 1
   72    65    64 1
   73    65    14 1
   74    66    23 1
   75    67    23 1
   76    68    23 1
   77    69    22 1
   78    70    22 1
   79    71    22 1
   80    72    21 1
   81    73    21 1
   82    74    21 1
   83    75    20 1
   84    76    20 1
   85    77    20 1
   86    78    15 1
   87    79    15 1
   88    80    15 1
   89    81     8 1
   90    82     8 1
   91    83     8 1
   92    84     7 1
   93    85     7 1
   94    86     6 1
   95    87     6 1
   96    88     3 1
   97    89     3 1
   98    90     1 1
   99    91     1 1
  100    92    63 1
  101    93    63 1
  102    94    63 1
  103    95    62 1
  104    96    62 1
  105    97    62 1
  106    98    60 1
  107    99    60 1
  108   100    59 1
  109   101    59 1
  110   102    58 1
  111   103    58 1
  112   104    57 1
  113   105    57 1
  114   106    57 1
  115   107    55 1
  116   108    55 1
  117   109    54 1
  118   110    54 1
  119   111    53 1
  120   112    53 1
  121   113    19 1
  122   114    18 1
  123   115    17 1
  124   116     9 1
  125   117     2 1
  126   118    52 1
  127   119    52 1
  128   120    52 1
  129   121    51 1
  130   122    50 1
  131   123    50 1
  132   124    49 1
  133   125    49 1
  134   126    48 1
  135   127    48 1
  136   128    43 1
  137   129    43 1
  138   130    43 1
  139   131    39 1
  140   132    32 1
  141   133    31 1
  142   134    61 1
  143   135    56 1
  144   136    24 1
  145   137    24 1
  146   139   138 1
  147   140   139 1
  148   141   140 1
  149   142   140 1
  150   143   142 1
  151   144   138 1
  152   144   143 1
  153   145   144 1
  154   146   145 1
  155   147   146 1
  156   148   147 1
  157   149   148 1
  158   150   149 1
  159   151   150 1
  160   152   151 1
  161   153   152 1
  162   154   138 1
  163   155   138 1
  164   156   143 1
  165   157   147 1
  166   158   151 1
  167   160   159 1
  168   161   160 1
  169   162   161 1
  170   163   161 1
  171   164   163 1
  172   165   159 1
  173   165   164 1
  174   166   165 1
  175   167   166 1
  176   168   167 1
  177   169   168 1
  178   170   169 1
  179   171   170 1
  180   172   171 1
  181   173   172 1
  182   174   153 1
  183   174   173 1
  184   175   159 1
  185   176   159 1
  186   177   164 1
  187   178   168 1
  188   179   172 1
  189   180   179 1
  190   181   179 1
  191   182   179 1
  192   183   178 1
  193   184   178 1
  194   185   178 1
  195   186   177 1
  196   187   177 1
  197   188   177 1
  198   189   176 1
  199   190   176 1
  200   191   176 1
  201   192   175 1
  202   193   175 1
  203   194   175 1
  204   195   160 1
  205   196   160 1
  206   197   158 1
  207   198   158 1
  208   199   158 1
  209   200   157 1
  210   201   157 1
  211   202   157 1
  212   203   156 1
  213   204   156 1
  214   205   156 1
  215   206   155 1
  216   207   155 1
  217   208   155 1
  218   209   154 1
  219   210   154 1
  220   211   154 1
  221   212   141 1
  222   213   146 1
  223   214   145 1
  224   215   142 1
  225   216   142 1
  226   217   174 1
  227   218   173 1
  228   219   171 1
  229   220   170 1
  230   221   169 1
  231   222   140 1
  232   223   167 1
  233   224   166 1
  234   225   165 1
  235   226   163 1
  236   227   161 1
  237   228   139 1
  238   229   139 1
  239   230   153 1
  240   231   152 1
  241   232   150 1
  242   233   149 1
  243   234   148 1
  244   235   162 1
  245   65    153 1
  246   65    174 1
@<TRIPOS>SUBSTRUCTURE
      1 CLA               1 ****               0 ****  **** 
      2 LUT             138 ****               0 ****  **** 
