@<TRIPOS>MOLECULE
Cpptraj generated mol2 file.
  235   246     2     0     0
SMALL
USER_CHARGES


@<TRIPOS>ATOM
      1 CAA        79.8016   58.4057   33.9570 a2         1 CLA     -0.055900
      2 CAB        80.3452   62.1752   42.9320 c8         1 CLA     -0.148500
      3 CAC        73.4425   58.1874   42.9017 a2         1 CLA     -0.012600
      4 CAD        75.8339   55.6816   35.4053 ck         1 CLA      0.398800
      5 NA         79.0763   58.6450   37.4573 ns         1 CLA     -0.225500
      6 CBA        80.9068   58.3441   32.9879 a2         1 CLA     -0.135000
      7 CBB        81.5241   62.3145   43.6157 c0         1 CLA     -0.395200
      8 CBC        73.2335   56.7155   42.7829 a3         1 CLA     -0.037700
      9 CBD        77.2148   56.2553   35.0283 a1         1 CLA     -0.053900
     10 NB         79.1627   60.2477   39.9456 nm         1 CLA     -0.295700
     11 OBD        75.2093   54.9087   34.6700 o2         1 CLA     -0.494600
     12 CGA        81.4545   56.9597   32.5923 c4         1 CLA      0.827000
     13 CGD        78.1502   55.0683   34.9766 c4         1 CLA      0.655300
     14 ND         76.2894   57.8157   38.1589 nm         1 CLA     -0.291600
     15 CED        78.9913   53.1678   35.9648 a3         1 CLA      0.005400
     16 CHA        77.6202   57.2179   36.1372 cs         1 CLA     -0.123800
     17 CHB        80.9077   60.0500   38.3042 aa         1 CLA     -0.291900
     18 CHC        77.9938   60.4450   42.1064 aa         1 CLA     -0.090400
     19 CHD        74.4857   57.7769   39.8221 aa         1 CLA     -0.052000
     20 CMA        82.3701   57.8606   36.7091 a3         1 CLA     -0.230700
     21 CMB        82.4176   61.9764   40.2829 a3         1 CLA     -0.180800
     22 CMC        75.8691   60.0754   44.2968 a3         1 CLA     -0.134000
     23 CMD        73.1465   55.7939   37.5624 a3         1 CLA     -0.141100
     24 C1         83.2150   55.4118   33.1889 a2         1 CLA      0.023000
     25 C1A        78.8254   57.9801   36.2817 ac         1 CLA     -0.015100
     26 C1B        80.3907   60.5779   39.5551 cr         1 CLA      0.054700
     27 C1C        76.7949   59.7199   41.8877 cn         1 CLA     -0.005600
     28 C1D        74.9878   57.4711   38.4958 ap         1 CLA     -0.047300
     29 O1A        81.2577   56.3351   31.5388 o2         1 CLA     -0.610800
     30 O1D        78.8432   54.7252   33.9737 o2         1 CLA     -0.558200
     31 C2         83.7124   54.7002   34.4080 c8         1 CLA     -0.325100
     32 C2A        80.0751   57.9201   35.4100 a1         1 CLA      0.098600
     33 C2B        81.0540   61.3399   40.5936 cb         1 CLA      0.088500
     34 C2C        75.7108   59.5746   42.8597 cb         1 CLA      0.053700
     35 C2D        74.4614   56.5097   37.5466 cb         1 CLA      0.058900
     36 O2A        82.3661   56.5414   33.5150 o1         1 CLA     -0.437200
     37 O2D        78.1944   54.3650   36.1575 o1         1 CLA     -0.357600
     38 C3         84.7978   53.9485   34.5984 c5         1 CLA      0.031200
     39 C3A        81.1736   58.6810   36.2492 a1         1 CLA      0.166800
     40 C3B        80.1794   61.4806   41.6600 cb         1 CLA      0.035000
     41 C3C        74.6753   58.8124   42.2096 cb         1 CLA     -0.089900
     42 C3D        75.5032   56.3736   36.6049 cb         1 CLA     -0.035900
     43 C4         84.8238   52.4496   34.4584 a3         1 CLA     -0.053300
     44 C4A        80.3519   59.2466   37.3859 ac         1 CLA      0.001800
     45 C4B        79.0624   60.7156   41.2419 cn         1 CLA     -0.020900
     46 C4C        75.1412   58.5093   40.8116 cr         1 CLA     -0.044400
     47 C4D        76.5490   57.2130   36.9992 c6         1 CLA     -0.046000
     48 C5         86.0529   54.4207   35.2098 a2         1 CLA     -0.070400
     49 C6         86.0109   55.1219   36.5469 a2         1 CLA      0.043900
     50 C7         87.3706   55.7333   37.0717 a2         1 CLA     -0.150000
     51 C8         87.2731   56.6530   38.3027 a1         1 CLA      0.064200
     52 C9         86.1103   57.6269   38.1751 a3         1 CLA     -0.259300
     53 C10        88.6839   57.3347   38.6759 a2         1 CLA     -0.071900
     54 C11        88.8212   57.8678   40.0392 a2         1 CLA      0.014500
     55 C12        89.1568   56.8361   41.0706 a2         1 CLA     -0.112100
     56 C13        89.7654   57.4126   42.3944 a1         1 CLA      0.089200
     57 C14        90.0089   56.2255   43.4312 a3         1 CLA     -0.239100
     58 C15        89.2710   58.7001   42.9829 a2         1 CLA     -0.102200
     59 C16        87.7923   58.6562   43.5030 a2         1 CLA      0.023900
     60 C17        87.5100   59.6782   44.5634 a2         1 CLA     -0.105700
     61 C18        86.0510   59.7465   45.1147 a1         1 CLA      0.206800
     62 C19        86.0322   60.7545   46.3586 a3         1 CLA     -0.280100
     63 C20        84.9103   59.9860   44.1097 a3         1 CLA     -0.280100
     64 NC         76.3746   59.1586   40.6605 nx         1 CLA     -0.309200
     65 MG         77.6716   59.0401   39.0073 mg         1 CLA      0.895000
     66 HMD3       73.2085   54.7241   37.3371 dc         1 CLA      0.064300
     67 HMD2       72.7575   55.8972   38.6181 dc         1 CLA      0.064300
     68 HMD1       72.3557   56.2761   36.9356 dc         1 CLA      0.064300
     69 HMC3       76.8092   59.7680   44.7489 dc         1 CLA      0.052100
     70 HMC2       75.9398   61.1404   44.1513 dc         1 CLA      0.052100
     71 HMC1       74.9997   59.7459   44.8776 dc         1 CLA      0.052100
     72 HMB3       83.1621   61.2754   40.2757 dc         1 CLA      0.063600
     73 HMB2       82.5334   62.5667   39.2846 dc         1 CLA      0.063600
     74 HMB1       82.6705   62.6841   41.0527 dc         1 CLA      0.063600
     75 HMA3       82.0958   57.0682   37.3933 dc         1 CLA      0.058300
     76 HMA2       82.7664   57.3833   35.7888 dc         1 CLA      0.058300
     77 HMA1       83.1619   58.4511   37.1203 dc         1 CLA      0.058300
     78 HED3       78.5551   52.6834   35.0805 dc         1 CLA      0.079300
     79 HED2       80.0373   53.3890   35.7750 dc         1 CLA      0.079300
     80 HED1       78.8839   52.5277   36.8294 dc         1 CLA      0.079300
     81 HBC3       72.5166   56.2454   43.4117 dc         1 CLA      0.016300
     82 HBC2       72.8339   56.4316   41.7961 dc         1 CLA      0.016300
     83 HBC1       74.1627   56.2076   42.9211 dc         1 CLA      0.016300
     84 HBB2       81.5726   62.7280   44.6366 da         1 CLA      0.183000
     85 HBB1       82.4875   61.8877   43.2275 da         1 CLA      0.183000
     86 HBA2       80.5521   58.7751   32.0292 dc         1 CLA      0.029400
     87 HBA1       81.7737   58.8549   33.2495 dc         1 CLA      0.029400
     88 HAC2       73.5291   58.3852   43.9548 dc         1 CLA      0.029300
     89 HAC1       72.5630   58.6490   42.4367 dc         1 CLA      0.029300
     90 HAA2       78.9649   57.7591   33.6416 dc         1 CLA      0.028700
     91 HAA1       79.2654   59.3672   34.0750 dc         1 CLA      0.028700
     92 H203       85.0760   60.8510   43.4644 dc         1 CLA      0.065600
     93 H202       84.9374   59.0572   43.4781 dc         1 CLA      0.065600
     94 H201       83.9631   60.2211   44.6148 dc         1 CLA      0.065600
     95 H193       86.2695   61.8155   46.0768 dc         1 CLA      0.065600
     96 H192       85.0569   60.7940   46.8065 dc         1 CLA      0.065600
     97 H191       86.8002   60.4703   47.0844 dc         1 CLA      0.065600
     98 H172       88.2093   59.5149   45.3831 dc         1 CLA      0.027600
     99 H171       87.6425   60.6944   44.1975 dc         1 CLA      0.027600
    100 H162       87.2422   58.7845   42.5866 dc         1 CLA      0.002900
    101 H161       87.5961   57.6370   43.9099 dc         1 CLA      0.002900
    102 H152       90.0476   59.0384   43.7445 dc         1 CLA      0.029100
    103 H151       89.3068   59.5165   42.2394 dc         1 CLA      0.029100
    104 H143       90.0004   55.2506   42.9160 dc         1 CLA      0.063600
    105 H142       90.9058   56.2067   43.9735 dc         1 CLA      0.063600
    106 H141       89.2415   56.2733   44.2355 dc         1 CLA      0.063600
    107 H122       88.3082   56.3004   41.4070 dc         1 CLA      0.032500
    108 H121       89.8482   56.1170   40.6433 dc         1 CLA      0.032500
    109 H112       89.6312   58.5446   40.0482 dc         1 CLA      0.006600
    110 H111       87.9846   58.4198   40.2759 dc         1 CLA      0.006600
    111 H102       89.4981   56.7360   38.4110 dc         1 CLA      0.024100
    112 H101       88.7965   58.2183   38.1135 dc         1 CLA      0.024100
    113 HHD        73.5368   57.4378   40.2008 da         1 CLA      0.174300
    114 HHC        77.9874   61.0224   43.0139 da         1 CLA      0.136800
    115 HHB        81.8970   60.5171   38.0889 da         1 CLA      0.138300
    116 HBD        77.2078   56.7683   34.0368 dc         1 CLA      0.107700
    117 HAB        79.3787   62.5262   43.5092 da         1 CLA      0.155200
    118 H93        86.0327   58.0543   39.1396 dc         1 CLA      0.069500
    119 H92        86.3499   58.4322   37.4806 dc         1 CLA      0.069500
    120 H91        85.1469   57.1952   37.9172 dc         1 CLA      0.069500
    121 H8         87.1036   55.9424   39.0764 dc         1 CLA      0.029300
    122 H72        88.1254   54.9866   37.2577 dc         1 CLA      0.044400
    123 H71        87.7661   56.2961   36.1883 dc         1 CLA      0.044400
    124 H62        85.2307   55.9158   36.4888 dc         1 CLA      0.015600
    125 H61        85.6392   54.3852   37.2113 dc         1 CLA      0.015600
    126 H52        86.7730   53.6373   35.3066 dc         1 CLA      0.033200
    127 H51        86.4267   55.2354   34.6534 dc         1 CLA      0.033200
    128 H43        84.0239   52.1684   33.7617 dc         1 CLA      0.037000
    129 H42        85.7480   52.1563   34.1317 dc         1 CLA      0.037000
    130 H41        84.6673   51.7837   35.2912 dc         1 CLA      0.037000
    131 H3A        81.5312   59.4592   35.6614 dc         1 CLA      0.041100
    132 H2A        80.3631   56.8553   35.3511 dc         1 CLA      0.083100
    133 H2         83.2403   54.9636   35.3491 da         1 CLA      0.180900
    134 H18        85.7962   58.7235   45.5209 dc         1 CLA     -0.003900
    135 H13        90.8169   57.6170   42.0564 dc         1 CLA      0.019700
    136 H12        82.6702   54.6906   32.5987 dc         1 CLA      0.120400
    137 H11        84.1312   55.8080   32.6921 dc         1 CLA      0.120400
    138 C1         69.9142   61.6307   49.5898 Z1         2 LUT      0.509236
    139 C2         68.6670   61.4896   50.4950 Z2         2 LUT     -0.434695
    140 C3         67.9260   62.8377   50.8101 Z3         2 LUT      0.437453
    141 O3         68.3146   63.4887   51.9983 S1         2 LUT     -0.547129
    142 C4         68.1382   63.8805   49.6895 Z4         2 LUT     -0.468603
    143 C5         68.9828   63.5997   48.4817 Z5         2 LUT      0.279246
    144 C6         69.8209   62.5598   48.4146 Z6         2 LUT     -0.305473
    145 C7         70.4387   62.0879   47.1573 Z7         2 LUT      0.069402
    146 C8         71.2228   62.7543   46.2691 Z8         2 LUT     -0.191631
    147 C9         71.7431   62.3316   44.9615 Z9         2 LUT      0.196698
    148 C10        72.7194   63.0964   44.4830 Y1         2 LUT     -0.208611
    149 C11        73.4791   62.8712   43.3083 Y2         2 LUT      0.030784
    150 C12        74.6780   63.5147   43.0142 Y3         2 LUT     -0.220316
    151 C13        75.5039   63.3856   41.9085 Y4         2 LUT      0.215937
    152 C14        76.7402   63.9685   42.0007 Y5         2 LUT     -0.185793
    153 C15        77.8071   64.0677   41.0786 Y6         2 LUT     -0.057835
    154 C16        70.4837   60.2662   49.3558 Y7         2 LUT     -0.405615
    155 C17        70.9122   62.4610   50.4830 Y7         2 LUT     -0.405615
    156 C18        68.5701   64.4616   47.2619 Y9         2 LUT     -0.369639
    157 C19        71.2777   61.0639   44.3275 W1         2 LUT     -0.333362
    158 C20        75.0408   62.4817   40.7556 W2         2 LUT     -0.323439
    159 C21        88.9342   65.3819   34.6246 Z1         2 LUT      0.406104
    160 C22        89.7060   64.8084   33.3623 Z2         2 LUT     -0.404965
    161 C23        89.8183   65.6840   32.1311 Z3         2 LUT      0.391255
    162 O23        90.2965   64.7110   31.1702 S1         2 LUT     -0.528210
    163 C24        88.5165   66.4180   31.9002 W6         2 LUT     -0.258361
    164 C25        87.4981   66.5687   32.7944 Z5         2 LUT      0.133546
    165 C26        87.4975   65.8316   34.1353 W8         2 LUT     -0.147008
    166 C27        86.7449   66.6062   35.1172 Z7         2 LUT      0.023843
    167 C28        85.6959   66.0957   35.7674 Z8         2 LUT     -0.216987
    168 C29        85.0515   66.6237   36.9694 Z9         2 LUT      0.206524
    169 C30        83.9052   65.8741   37.3931 Y1         2 LUT     -0.215556
    170 C31        83.1077   65.8912   38.5286 Y2         2 LUT      0.025142
    171 C32        81.9632   65.1769   38.7533 Y3         2 LUT     -0.212209
    172 C33        81.1284   65.2998   39.9784 Y4         2 LUT      0.240937
    173 C34        79.8774   64.7481   40.1032 Y5         2 LUT     -0.218862
    174 C35        79.0195   64.6491   41.2096 Y6         2 LUT     -0.023547
    175 C36        89.6983   66.6915   35.0885 Y7         2 LUT     -0.393485
    176 C37        89.1705   64.3254   35.7648 Y7         2 LUT     -0.393485
    177 C38        86.2403   67.1594   32.2693 Y9         2 LUT     -0.387526
    178 C39        85.6643   67.7657   37.7769 W1         2 LUT     -0.322618
    179 C40        81.5969   66.2636   41.0607 W2         2 LUT     -0.358472
    180 H403       81.0703   66.2472   42.0147 R7         2 LUT      0.097720
    181 H402       82.6398   66.1033   41.3073 R7         2 LUT      0.097720
    182 H401       81.5792   67.2565   40.6908 R7         2 LUT      0.097720
    183 H393       85.2403   67.9786   38.7462 R4         2 LUT      0.082505
    184 H392       86.7888   67.6367   37.9403 R4         2 LUT      0.082505
    185 H391       85.6804   68.6893   37.1189 R4         2 LUT      0.082505
    186 H383       86.4082   67.5895   31.2298 R1         2 LUT      0.104030
    187 H382       85.4614   66.3960   32.1673 R1         2 LUT      0.104030
    188 H381       85.9414   67.9975   32.9523 R1         2 LUT      0.104030
    189 H373       90.2005   64.1126   35.9944 T4         2 LUT      0.089537
    190 H372       88.7806   64.5571   36.7707 T4         2 LUT      0.089537
    191 H371       88.8177   63.3063   35.5517 T4         2 LUT      0.089537
    192 H363       90.7483   66.5259   35.3811 T4         2 LUT      0.089537
    193 H362       89.6391   67.4803   34.4321 T4         2 LUT      0.089537
    194 H361       89.1779   67.1607   35.9595 T4         2 LUT      0.089537
    195 H222       90.7292   64.5995   33.7976 U2         2 LUT      0.127376
    196 H221       89.2249   63.8837   33.0637 U2         2 LUT      0.127376
    197 H203       74.1159   61.9014   40.8870 R7         2 LUT      0.087068
    198 H202       75.0575   63.0397   39.8389 R7         2 LUT      0.087068
    199 H201       75.8225   61.7238   40.6592 R7         2 LUT      0.087068
    200 H193       72.0971   60.4262   43.8951 R4         2 LUT      0.089716
    201 H192       70.6623   60.4319   45.0357 R4         2 LUT      0.089716
    202 H191       70.6424   61.3270   43.4669 R4         2 LUT      0.089716
    203 H183       67.6713   65.0647   47.3698 R1         2 LUT      0.094572
    204 H182       69.2627   65.1931   46.9973 R1         2 LUT      0.094572
    205 H181       68.2270   63.9409   46.3320 R1         2 LUT      0.094572
    206 H173       71.8451   62.4947   49.9611 T4         2 LUT      0.093752
    207 H172       70.5166   63.5123   50.6504 T4         2 LUT      0.093752
    208 H171       71.1284   62.1157   51.4552 T4         2 LUT      0.093752
    209 H163       71.2409   60.2889   48.5914 T4         2 LUT      0.093752
    210 H162       70.9614   59.8341   50.2248 T4         2 LUT      0.093752
    211 H161       69.7686   59.5259   49.0515 T4         2 LUT      0.093752
    212 HO3        68.2529   62.9902   52.7887 Q1         2 LUT      0.300121
    213 H8         71.6122   63.7184   46.5573 U7         2 LUT      0.080784
    214 H7         70.2340   60.9968   46.8831 U6         2 LUT      0.042190
    215 H42        67.0995   64.3315   49.4422 U5         2 LUT      0.145166
    216 H41        68.6542   64.7866   49.9769 U5         2 LUT      0.145166
    217 H35        79.2723   65.0260   42.1851 T3         2 LUT      0.077919
    218 H34        79.5118   64.2234   39.2143 T2         2 LUT      0.073626
    219 H32        81.6015   64.6457   37.9596 T1         2 LUT      0.092510
    220 H31        83.4609   66.5946   39.2472 U9         2 LUT      0.070048
    221 H30        83.7011   65.0435   36.7226 U8         2 LUT      0.085442
    222 H3         66.8432   62.6444   50.9768 U3         2 LUT     -0.031596
    223 H28        85.4521   65.0875   35.5595 U7         2 LUT      0.084728
    224 H27        86.8243   67.6316   35.4318 U6         2 LUT      0.087291
    225 H26        86.9766   64.8897   33.8843 Q6         2 LUT      0.075325
    226 H24        88.3022   66.8042   30.8677 Q5         2 LUT      0.094482
    227 H23        90.5955   66.3955   32.4816 U3         2 LUT     -0.024869
    228 H22        67.8290   61.1206   49.8405 U2         2 LUT      0.127376
    229 H21        68.8362   60.8786   51.3627 U2         2 LUT      0.127376
    230 H15        77.4823   63.5926   40.1559 T3         2 LUT      0.093200
    231 H14        77.0345   64.4784   42.8936 T2         2 LUT      0.068865
    232 H12        75.1426   64.0952   43.8093 T1         2 LUT      0.095507
    233 H11        73.0143   62.1551   42.6160 U9         2 LUT      0.068930
    234 H10        73.1239   63.9415   44.9995 U8         2 LUT      0.083911
    235 H1         90.0060   64.8474   30.2677 Q1         2 LUT      0.297311
@<TRIPOS>BOND
    1     6     1 1
    2     7     2 1
    3     8     3 1
    4     9     4 1
    5    11     4 1
    6    12     6 1
    7    13     9 1
    8    16     9 1
    9    25     5 1
   10    25    16 1
   11    26    10 1
   12    26    17 1
   13    27    18 1
   14    28    14 1
   15    28    19 1
   16    29    12 1
   17    30    13 1
   18    31    24 1
   19    32     1 1
   20    32    25 1
   21    33    21 1
   22    33    26 1
   23    34    22 1
   24    34    27 1
   25    35    23 1
   26    35    28 1
   27    36    12 1
   28    36    24 1
   29    37    13 1
   30    37    15 1
   31    38    31 1
   32    39    20 1
   33    39    32 1
   34    40     2 1
   35    40    33 1
   36    41     3 1
   37    41    34 1
   38    42     4 1
   39    42    35 1
   40    43    38 1
   41    44     5 1
   42    44    17 1
   43    44    39 1
   44    45    10 1
   45    45    18 1
   46    45    40 1
   47    46    19 1
   48    46    41 1
   49    47    14 1
   50    47    16 1
   51    47    42 1
   52    48    38 1
   53    49    48 1
   54    50    49 1
   55    51    50 1
   56    52    51 1
   57    53    51 1
   58    54    53 1
   59    55    54 1
   60    56    55 1
   61    57    56 1
   62    58    56 1
   63    59    58 1
   64    60    59 1
   65    61    60 1
   66    62    61 1
   67    63    61 1
   68    64    27 1
   69    64    46 1
   70    65     5 1
   71    65    10 1
   72    65    64 1
   73    65    14 1
   74    66    23 1
   75    67    23 1
   76    68    23 1
   77    69    22 1
   78    70    22 1
   79    71    22 1
   80    72    21 1
   81    73    21 1
   82    74    21 1
   83    75    20 1
   84    76    20 1
   85    77    20 1
   86    78    15 1
   87    79    15 1
   88    80    15 1
   89    81     8 1
   90    82     8 1
   91    83     8 1
   92    84     7 1
   93    85     7 1
   94    86     6 1
   95    87     6 1
   96    88     3 1
   97    89     3 1
   98    90     1 1
   99    91     1 1
  100    92    63 1
  101    93    63 1
  102    94    63 1
  103    95    62 1
  104    96    62 1
  105    97    62 1
  106    98    60 1
  107    99    60 1
  108   100    59 1
  109   101    59 1
  110   102    58 1
  111   103    58 1
  112   104    57 1
  113   105    57 1
  114   106    57 1
  115   107    55 1
  116   108    55 1
  117   109    54 1
  118   110    54 1
  119   111    53 1
  120   112    53 1
  121   113    19 1
  122   114    18 1
  123   115    17 1
  124   116     9 1
  125   117     2 1
  126   118    52 1
  127   119    52 1
  128   120    52 1
  129   121    51 1
  130   122    50 1
  131   123    50 1
  132   124    49 1
  133   125    49 1
  134   126    48 1
  135   127    48 1
  136   128    43 1
  137   129    43 1
  138   130    43 1
  139   131    39 1
  140   132    32 1
  141   133    31 1
  142   134    61 1
  143   135    56 1
  144   136    24 1
  145   137    24 1
  146   139   138 1
  147   140   139 1
  148   141   140 1
  149   142   140 1
  150   143   142 1
  151   144   138 1
  152   144   143 1
  153   145   144 1
  154   146   145 1
  155   147   146 1
  156   148   147 1
  157   149   148 1
  158   150   149 1
  159   151   150 1
  160   152   151 1
  161   153   152 1
  162   154   138 1
  163   155   138 1
  164   156   143 1
  165   157   147 1
  166   158   151 1
  167   160   159 1
  168   161   160 1
  169   162   161 1
  170   163   161 1
  171   164   163 1
  172   165   159 1
  173   165   164 1
  174   166   165 1
  175   167   166 1
  176   168   167 1
  177   169   168 1
  178   170   169 1
  179   171   170 1
  180   172   171 1
  181   173   172 1
  182   174   153 1
  183   174   173 1
  184   175   159 1
  185   176   159 1
  186   177   164 1
  187   178   168 1
  188   179   172 1
  189   180   179 1
  190   181   179 1
  191   182   179 1
  192   183   178 1
  193   184   178 1
  194   185   178 1
  195   186   177 1
  196   187   177 1
  197   188   177 1
  198   189   176 1
  199   190   176 1
  200   191   176 1
  201   192   175 1
  202   193   175 1
  203   194   175 1
  204   195   160 1
  205   196   160 1
  206   197   158 1
  207   198   158 1
  208   199   158 1
  209   200   157 1
  210   201   157 1
  211   202   157 1
  212   203   156 1
  213   204   156 1
  214   205   156 1
  215   206   155 1
  216   207   155 1
  217   208   155 1
  218   209   154 1
  219   210   154 1
  220   211   154 1
  221   212   141 1
  222   213   146 1
  223   214   145 1
  224   215   142 1
  225   216   142 1
  226   217   174 1
  227   218   173 1
  228   219   171 1
  229   220   170 1
  230   221   169 1
  231   222   140 1
  232   223   167 1
  233   224   166 1
  234   225   165 1
  235   226   163 1
  236   227   161 1
  237   228   139 1
  238   229   139 1
  239   230   153 1
  240   231   152 1
  241   232   150 1
  242   233   149 1
  243   234   148 1
  244   235   162 1
  245   65    153 1
  246   65    174 1
@<TRIPOS>SUBSTRUCTURE
      1 CLA               1 ****               0 ****  **** 
      2 LUT             138 ****               0 ****  **** 
