@<TRIPOS>MOLECULE
Cpptraj generated mol2 file.
  235   246     2     0     0
SMALL
USER_CHARGES


@<TRIPOS>ATOM
      1 CAA        79.2948   58.3193   34.6585 a2         1 CLA     -0.055900
      2 CAB        79.3764   61.9335   43.6602 c8         1 CLA     -0.148500
      3 CAC        72.2613   58.3271   43.0828 a2         1 CLA     -0.012600
      4 CAD        74.8835   55.6510   35.9034 ck         1 CLA      0.398800
      5 NA         78.1495   58.5975   38.0573 ns         1 CLA     -0.225500
      6 CBA        80.5747   58.0776   33.8335 a2         1 CLA     -0.135000
      7 CBB        80.4455   61.8125   44.4475 c0         1 CLA     -0.395200
      8 CBC        72.4852   57.0398   43.7914 a3         1 CLA     -0.037700
      9 CBD        76.4307   56.1175   35.5890 a1         1 CLA     -0.053900
     10 NB         78.1366   60.0827   40.6891 nm         1 CLA     -0.295700
     11 OBD        74.2052   54.9634   35.1822 o2         1 CLA     -0.494600
     12 CGA        81.0062   56.6208   33.5547 c4         1 CLA      0.827000
     13 CGD        77.3270   54.9290   35.4958 c4         1 CLA      0.655300
     14 ND         75.3860   57.9290   38.6104 nm         1 CLA     -0.291600
     15 CED        78.1379   53.0247   36.5637 a3         1 CLA      0.005400
     16 CHA        76.8143   57.1104   36.6767 cs         1 CLA     -0.123800
     17 CHB        80.0132   59.8220   39.0946 aa         1 CLA     -0.291900
     18 CHC        76.8828   60.3997   42.7362 aa         1 CLA     -0.090400
     19 CHD        73.5935   57.7413   40.3288 aa         1 CLA     -0.052000
     20 CMA        81.5308   57.7544   37.5137 a3         1 CLA     -0.230700
     21 CMB        81.5352   61.4269   41.2284 a3         1 CLA     -0.180800
     22 CMC        74.4791   59.9913   44.7970 a3         1 CLA     -0.134000
     23 CMD        72.1761   56.0248   38.1193 a3         1 CLA     -0.141100
     24 C1         82.1392   54.6257   34.5731 a2         1 CLA      0.023000
     25 C1A        78.0253   57.7375   36.9497 ac         1 CLA     -0.015100
     26 C1B        79.4462   60.3256   40.3071 cr         1 CLA      0.054700
     27 C1C        75.6985   59.7211   42.4243 cn         1 CLA     -0.005600
     28 C1D        74.1468   57.4470   39.0275 ap         1 CLA     -0.047300
     29 O1A        80.5296   55.8309   32.7363 o2         1 CLA     -0.610800
     30 O1D        78.2093   54.8085   34.6571 o2         1 CLA     -0.558200
     31 C2         82.9555   54.4620   35.8256 c8         1 CLA     -0.325100
     32 C2A        79.3663   57.7325   36.0946 a1         1 CLA      0.098600
     33 C2B        80.1409   60.9194   41.3705 cb         1 CLA      0.088500
     34 C2C        74.5569   59.6263   43.2989 cb         1 CLA      0.053700
     35 C2D        73.5364   56.6180   38.0458 cb         1 CLA      0.058900
     36 O2A        81.9237   56.1462   34.4761 o1         1 CLA     -0.437200
     37 O2D        77.1902   54.1572   36.6273 o1         1 CLA     -0.357600
     38 C3         84.2369   54.2701   35.8760 c5         1 CLA      0.031200
     39 C3A        80.3424   58.5007   37.0052 a1         1 CLA      0.166800
     40 C3B        79.2164   61.2393   42.4093 cb         1 CLA      0.035000
     41 C3C        73.5606   58.9218   42.6079 cb         1 CLA     -0.089900
     42 C3D        74.5378   56.4291   37.0406 cb         1 CLA     -0.035900
     43 C4         84.8982   52.9269   35.9715 a3         1 CLA     -0.053300
     44 C4A        79.4428   59.0437   38.0860 ac         1 CLA      0.001800
     45 C4B        77.9735   60.6030   41.9457 cn         1 CLA     -0.020900
     46 C4C        74.1734   58.5513   41.2946 cr         1 CLA     -0.044400
     47 C4D        75.6601   57.2339   37.4366 c6         1 CLA     -0.046000
     48 C5         85.2391   55.4341   35.9052 a2         1 CLA     -0.070400
     49 C6         85.3214   56.0618   37.3416 a2         1 CLA      0.043900
     50 C7         86.5454   57.0891   37.4613 a2         1 CLA     -0.150000
     51 C8         87.9358   56.5850   37.9468 a1         1 CLA      0.064200
     52 C9         88.5061   55.3889   37.2108 a3         1 CLA     -0.259300
     53 C10        87.8370   56.3246   39.5559 a2         1 CLA     -0.071900
     54 C11        87.6235   57.5109   40.5533 a2         1 CLA      0.014500
     55 C12        87.3628   56.9865   41.8951 a2         1 CLA     -0.112100
     56 C13        87.0999   58.0265   43.0130 a1         1 CLA      0.089200
     57 C14        87.9953   59.3063   43.0545 a3         1 CLA     -0.239100
     58 C15        87.0972   57.3452   44.4433 a2         1 CLA     -0.102200
     59 C16        86.5841   58.0640   45.7744 a2         1 CLA      0.023900
     60 C17        85.0128   58.1708   45.6180 a2         1 CLA     -0.105700
     61 C18        84.2698   58.8842   46.8837 a1         1 CLA      0.206800
     62 C19        84.5353   60.4102   46.9529 a3         1 CLA     -0.280100
     63 C20        82.7780   58.5634   46.8781 a3         1 CLA     -0.280100
     64 NC         75.3710   59.2311   41.2062 nx         1 CLA     -0.309200
     65 MG         76.7313   59.0715   39.6310 mg         1 CLA      0.895000
     66 HMD3       71.5306   56.2145   39.0302 dc         1 CLA      0.064300
     67 HMD2       71.6610   56.3925   37.2223 dc         1 CLA      0.064300
     68 HMD1       72.1253   54.9484   37.8631 dc         1 CLA      0.064300
     69 HMC3       74.9900   59.2908   45.4522 dc         1 CLA      0.052100
     70 HMC2       75.0147   60.9053   44.9480 dc         1 CLA      0.052100
     71 HMC1       73.4488   60.0377   45.1781 dc         1 CLA      0.052100
     72 HMB3       82.1571   60.6587   40.9614 dc         1 CLA      0.063600
     73 HMB2       81.6256   62.3079   40.5513 dc         1 CLA      0.063600
     74 HMB1       81.8850   61.7114   42.1877 dc         1 CLA      0.063600
     75 HMA3       82.0968   58.3694   38.1572 dc         1 CLA      0.058300
     76 HMA2       81.1133   56.8860   38.0843 dc         1 CLA      0.058300
     77 HMA1       82.1899   57.5105   36.7234 dc         1 CLA      0.058300
     78 HED3       77.8840   52.3977   37.4606 dc         1 CLA      0.079300
     79 HED2       78.0082   52.5178   35.5878 dc         1 CLA      0.079300
     80 HED1       79.1763   53.3394   36.5341 dc         1 CLA      0.079300
     81 HBC3       73.1248   57.2048   44.6067 dc         1 CLA      0.016300
     82 HBC2       71.5454   56.7566   44.2122 dc         1 CLA      0.016300
     83 HBC1       72.7724   56.2148   43.2093 dc         1 CLA      0.016300
     84 HBB2       80.6181   62.3936   45.4431 da         1 CLA      0.183000
     85 HBB1       81.2854   61.1118   44.0880 da         1 CLA      0.183000
     86 HBA2       80.4168   58.5610   32.8767 dc         1 CLA      0.029400
     87 HBA1       81.3425   58.6260   34.4263 dc         1 CLA      0.029400
     88 HAC2       71.6819   59.0246   43.7587 dc         1 CLA      0.029300
     89 HAC1       71.5958   58.2397   42.2419 dc         1 CLA      0.029300
     90 HAA2       78.5063   57.8315   34.2387 dc         1 CLA      0.028700
     91 HAA1       79.0889   59.3824   34.6761 dc         1 CLA      0.028700
     92 H203       82.6774   57.4991   47.1619 dc         1 CLA      0.065600
     93 H202       82.2676   59.2281   47.6097 dc         1 CLA      0.065600
     94 H201       82.3442   58.6015   45.9280 dc         1 CLA      0.065600
     95 H193       84.0773   60.8616   46.0970 dc         1 CLA      0.065600
     96 H192       84.0488   60.7849   47.8447 dc         1 CLA      0.065600
     97 H191       85.5819   60.6840   46.9871 dc         1 CLA      0.065600
     98 H172       84.8805   58.6440   44.6114 dc         1 CLA      0.027600
     99 H171       84.5446   57.1405   45.5687 dc         1 CLA      0.027600
    100 H162       86.7391   57.3736   46.5818 dc         1 CLA      0.002900
    101 H161       86.9986   59.0106   46.0078 dc         1 CLA      0.002900
    102 H152       86.6999   56.3393   44.4823 dc         1 CLA      0.029100
    103 H151       88.1390   57.1349   44.7756 dc         1 CLA      0.029100
    104 H143       89.0031   58.9623   42.9013 dc         1 CLA      0.063600
    105 H142       87.6793   59.8966   42.1806 dc         1 CLA      0.063600
    106 H141       88.0100   59.8727   43.9690 dc         1 CLA      0.063600
    107 H122       86.4779   56.3409   41.8168 dc         1 CLA      0.032500
    108 H121       88.2069   56.4120   42.3086 dc         1 CLA      0.032500
    109 H112       88.4973   58.1472   40.4941 dc         1 CLA      0.006600
    110 H111       86.7654   58.0914   40.2509 dc         1 CLA      0.006600
    111 H102       87.0532   55.5707   39.7396 dc         1 CLA      0.024100
    112 H101       88.7626   55.8555   39.9006 dc         1 CLA      0.024100
    113 HHD        72.6456   57.1855   40.4332 da         1 CLA      0.174300
    114 HHC        76.9964   60.8643   43.6997 da         1 CLA      0.136800
    115 HHB        81.0274   60.0866   38.9530 da         1 CLA      0.138300
    116 HBD        76.3052   56.5795   34.5876 dc         1 CLA      0.107700
    117 HAB        78.5423   62.6103   44.0139 da         1 CLA      0.155200
    118 H93        87.7615   54.5279   37.0789 dc         1 CLA      0.069500
    119 H92        88.8546   55.7687   36.2305 dc         1 CLA      0.069500
    120 H91        89.3475   54.9935   37.7460 dc         1 CLA      0.069500
    121 H8         88.7373   57.3632   37.8232 dc         1 CLA      0.029300
    122 H72        86.4922   57.4859   36.4612 dc         1 CLA      0.044400
    123 H71        86.2676   57.9410   38.0991 dc         1 CLA      0.044400
    124 H62        84.4133   56.6554   37.5094 dc         1 CLA      0.015600
    125 H61        85.4268   55.2272   38.0747 dc         1 CLA      0.015600
    126 H52        86.2043   55.1390   35.5614 dc         1 CLA      0.033200
    127 H51        84.9569   56.2729   35.2547 dc         1 CLA      0.033200
    128 H43        85.7684   52.8630   36.6432 dc         1 CLA      0.037000
    129 H42        84.2802   52.0596   36.2263 dc         1 CLA      0.037000
    130 H41        85.3503   52.7137   35.0249 dc         1 CLA      0.037000
    131 H3A        80.8359   59.3947   36.5758 dc         1 CLA      0.041100
    132 H2A        79.8345   56.7346   35.9747 dc         1 CLA      0.083100
    133 H2         82.3919   54.5861   36.7366 da         1 CLA      0.180900
    134 H18        84.5682   58.4732   47.8423 dc         1 CLA     -0.003900
    135 H13        86.1336   58.5236   42.8095 dc         1 CLA      0.019700
    136 H12        81.2150   54.0484   34.5478 dc         1 CLA      0.120400
    137 H11        82.8129   54.3452   33.7238 dc         1 CLA      0.120400
    138 C1         69.4530   61.2471   50.2021 Z1         2 LUT      0.509236
    139 C2         68.2529   61.1670   51.1356 Z2         2 LUT     -0.434695
    140 C3         67.6644   62.5215   51.5361 Z3         2 LUT      0.437453
    141 O3         68.1178   62.9007   52.8213 S1         2 LUT     -0.547129
    142 C4         67.8731   63.6299   50.5740 Z4         2 LUT     -0.468603
    143 C5         68.3648   63.3098   49.2251 Z5         2 LUT      0.279246
    144 C6         69.1719   62.2391   49.0365 Z6         2 LUT     -0.305473
    145 C7         69.6462   61.8602   47.6736 Z7         2 LUT      0.069402
    146 C8         70.3543   62.6232   46.8863 Z8         2 LUT     -0.191631
    147 C9         70.9205   62.1657   45.6150 Z9         2 LUT      0.196698
    148 C10        71.9381   62.9332   45.1050 Y1         2 LUT     -0.208611
    149 C11        72.7332   62.8303   43.9310 Y2         2 LUT      0.030784
    150 C12        73.8516   63.6019   43.7902 Y3         2 LUT     -0.220316
    151 C13        74.7397   63.6865   42.6592 Y4         2 LUT      0.215937
    152 C14        75.8945   64.3745   42.7659 Y5         2 LUT     -0.185793
    153 C15        77.0429   64.3881   41.9205 Y6         2 LUT     -0.057835
    154 C16        69.8352   59.7892   49.9212 Y7         2 LUT     -0.405615
    155 C17        70.5863   61.6957   51.1709 Y7         2 LUT     -0.405615
    156 C18        67.6090   64.2213   48.1879 Y9         2 LUT     -0.369639
    157 C19        70.2425   61.0455   44.8959 W1         2 LUT     -0.333362
    158 C20        74.2517   63.0813   41.3818 W2         2 LUT     -0.323439
    159 C21        88.3503   65.5352   35.2914 Z1         2 LUT      0.406104
    160 C22        88.8298   64.8896   33.9847 Z2         2 LUT     -0.404965
    161 C23        88.8535   65.8473   32.7684 Z3         2 LUT      0.391255
    162 O23        88.8319   65.0103   31.5995 S1         2 LUT     -0.528210
    163 C24        87.5527   66.7353   32.7335 W6         2 LUT     -0.258361
    164 C25        86.7087   66.8628   33.7441 Z5         2 LUT      0.133546
    165 C26        86.8967   66.0923   35.0206 W8         2 LUT     -0.147008
    166 C27        86.2991   66.6928   36.3112 Z7         2 LUT      0.023843
    167 C28        85.1676   66.2370   36.8837 Z8         2 LUT     -0.216987
    168 C29        84.5458   66.5897   38.1388 Z9         2 LUT      0.206524
    169 C30        83.3976   65.8911   38.5693 Y1         2 LUT     -0.215556
    170 C31        82.5236   66.0075   39.7296 Y2         2 LUT      0.025142
    171 C32        81.3675   65.4070   39.9713 Y3         2 LUT     -0.212209
    172 C33        80.5078   65.5185   41.1704 Y4         2 LUT      0.240937
    173 C34        79.3580   64.8796   41.2116 Y5         2 LUT     -0.218862
    174 C35        78.3207   64.8464   42.2642 Y6         2 LUT     -0.023547
    175 C36        89.3955   66.6023   35.7534 Y7         2 LUT     -0.393485
    176 C37        88.2706   64.3462   36.2361 Y7         2 LUT     -0.393485
    177 C38        85.5343   67.8183   33.5871 Y9         2 LUT     -0.387526
    178 C39        85.1826   67.7116   38.9672 W1         2 LUT     -0.322618
    179 C40        80.9346   66.3494   42.3993 W2         2 LUT     -0.358472
    180 H403       80.9010   65.7725   43.3112 R7         2 LUT      0.097720
    181 H402       81.9987   66.6294   42.4053 R7         2 LUT      0.097720
    182 H401       80.5234   67.2707   42.6197 R7         2 LUT      0.097720
    183 H393       85.0022   68.6738   38.4920 R4         2 LUT      0.082505
    184 H392       84.8855   67.7729   40.0372 R4         2 LUT      0.082505
    185 H391       86.2566   67.4470   38.9304 R4         2 LUT      0.082505
    186 H383       85.2294   68.2253   34.5463 R1         2 LUT      0.104030
    187 H382       85.7895   68.6814   32.9517 R1         2 LUT      0.104030
    188 H381       84.6849   67.3119   33.2395 R1         2 LUT      0.104030
    189 H373       87.4855   63.6535   35.8707 T4         2 LUT      0.089537
    190 H372       89.1497   63.7425   36.2482 T4         2 LUT      0.089537
    191 H371       87.9982   64.5156   37.2762 T4         2 LUT      0.089537
    192 H363       89.0766   67.3789   36.4741 T4         2 LUT      0.089537
    193 H362       90.2850   66.0701   36.0317 T4         2 LUT      0.089537
    194 H361       89.8020   67.1084   34.8366 T4         2 LUT      0.089537
    195 H222       89.8391   64.5884   34.1387 U2         2 LUT      0.127376
    196 H221       88.2230   64.0479   33.7750 U2         2 LUT      0.127376
    197 H203       74.0722   61.9869   41.4630 R7         2 LUT      0.087068
    198 H202       73.3504   63.6054   41.0299 R7         2 LUT      0.087068
    199 H201       74.9840   63.2439   40.5889 R7         2 LUT      0.087068
    200 H193       70.6246   60.8614   43.8970 R4         2 LUT      0.089716
    201 H192       70.3383   60.0894   45.4779 R4         2 LUT      0.089716
    202 H191       69.1565   61.2297   44.7572 R4         2 LUT      0.089716
    203 H183       67.8242   63.9531   47.1470 R1         2 LUT      0.094572
    204 H182       66.5183   64.3092   48.3258 R1         2 LUT      0.094572
    205 H181       67.9389   65.3315   48.2474 R1         2 LUT      0.094572
    206 H173       70.4383   62.7309   51.5309 T4         2 LUT      0.093752
    207 H172       70.7991   60.9894   52.0313 T4         2 LUT      0.093752
    208 H171       71.5779   61.6721   50.7396 T4         2 LUT      0.093752
    209 H163       70.5923   59.7663   49.1388 T4         2 LUT      0.093752
    210 H162       70.2663   59.2725   50.7868 T4         2 LUT      0.093752
    211 H161       69.0139   59.2364   49.6220 T4         2 LUT      0.093752
    212 HO3        67.6359   62.4578   53.5363 Q1         2 LUT      0.300121
    213 H8         70.6903   63.5863   47.3129 U7         2 LUT      0.080784
    214 H7         69.3874   60.9030   47.3403 U6         2 LUT      0.042190
    215 H42        66.8706   64.1576   50.4852 U5         2 LUT      0.145166
    216 H41        68.4554   64.4688   50.9946 U5         2 LUT      0.145166
    217 H35        78.4611   65.3666   43.2019 T3         2 LUT      0.077919
    218 H34        79.1713   64.1722   40.4215 T2         2 LUT      0.073626
    219 H32        81.0491   64.6842   39.1920 T1         2 LUT      0.092510
    220 H31        82.9219   66.6831   40.4371 U9         2 LUT      0.070048
    221 H30        82.9844   65.2880   37.6842 U8         2 LUT      0.085442
    222 H3         66.6089   62.3729   51.5860 U3         2 LUT     -0.031596
    223 H28        84.7999   65.3943   36.3755 U7         2 LUT      0.084728
    224 H27        86.9214   67.4798   36.7510 U6         2 LUT      0.087291
    225 H26        86.2411   65.2085   34.8477 Q6         2 LUT      0.075325
    226 H24        87.4501   67.3747   31.8701 Q5         2 LUT      0.094482
    227 H23        89.5722   66.6401   32.8146 U3         2 LUT     -0.024869
    228 H22        67.5267   60.5757   50.5596 U2         2 LUT      0.127376
    229 H21        68.4675   60.5900   52.0165 U2         2 LUT      0.127376
    230 H15        77.1252   64.0248   40.9032 T3         2 LUT      0.093200
    231 H14        76.1335   64.8603   43.7584 T2         2 LUT      0.068865
    232 H12        74.0970   64.2448   44.6019 T1         2 LUT      0.095507
    233 H11        72.5023   62.1138   43.1479 U9         2 LUT      0.068930
    234 H10        72.3989   63.6476   45.7984 U8         2 LUT      0.083911
    235 H1         89.3434   65.4349   30.8996 Q1         2 LUT      0.297311
@<TRIPOS>BOND
    1     6     1 1
    2     7     2 1
    3     8     3 1
    4     9     4 1
    5    11     4 1
    6    12     6 1
    7    13     9 1
    8    16     9 1
    9    25     5 1
   10    25    16 1
   11    26    10 1
   12    26    17 1
   13    27    18 1
   14    28    14 1
   15    28    19 1
   16    29    12 1
   17    30    13 1
   18    31    24 1
   19    32     1 1
   20    32    25 1
   21    33    21 1
   22    33    26 1
   23    34    22 1
   24    34    27 1
   25    35    23 1
   26    35    28 1
   27    36    12 1
   28    36    24 1
   29    37    13 1
   30    37    15 1
   31    38    31 1
   32    39    20 1
   33    39    32 1
   34    40     2 1
   35    40    33 1
   36    41     3 1
   37    41    34 1
   38    42     4 1
   39    42    35 1
   40    43    38 1
   41    44     5 1
   42    44    17 1
   43    44    39 1
   44    45    10 1
   45    45    18 1
   46    45    40 1
   47    46    19 1
   48    46    41 1
   49    47    14 1
   50    47    16 1
   51    47    42 1
   52    48    38 1
   53    49    48 1
   54    50    49 1
   55    51    50 1
   56    52    51 1
   57    53    51 1
   58    54    53 1
   59    55    54 1
   60    56    55 1
   61    57    56 1
   62    58    56 1
   63    59    58 1
   64    60    59 1
   65    61    60 1
   66    62    61 1
   67    63    61 1
   68    64    27 1
   69    64    46 1
   70    65     5 1
   71    65    10 1
   72    65    64 1
   73    65    14 1
   74    66    23 1
   75    67    23 1
   76    68    23 1
   77    69    22 1
   78    70    22 1
   79    71    22 1
   80    72    21 1
   81    73    21 1
   82    74    21 1
   83    75    20 1
   84    76    20 1
   85    77    20 1
   86    78    15 1
   87    79    15 1
   88    80    15 1
   89    81     8 1
   90    82     8 1
   91    83     8 1
   92    84     7 1
   93    85     7 1
   94    86     6 1
   95    87     6 1
   96    88     3 1
   97    89     3 1
   98    90     1 1
   99    91     1 1
  100    92    63 1
  101    93    63 1
  102    94    63 1
  103    95    62 1
  104    96    62 1
  105    97    62 1
  106    98    60 1
  107    99    60 1
  108   100    59 1
  109   101    59 1
  110   102    58 1
  111   103    58 1
  112   104    57 1
  113   105    57 1
  114   106    57 1
  115   107    55 1
  116   108    55 1
  117   109    54 1
  118   110    54 1
  119   111    53 1
  120   112    53 1
  121   113    19 1
  122   114    18 1
  123   115    17 1
  124   116     9 1
  125   117     2 1
  126   118    52 1
  127   119    52 1
  128   120    52 1
  129   121    51 1
  130   122    50 1
  131   123    50 1
  132   124    49 1
  133   125    49 1
  134   126    48 1
  135   127    48 1
  136   128    43 1
  137   129    43 1
  138   130    43 1
  139   131    39 1
  140   132    32 1
  141   133    31 1
  142   134    61 1
  143   135    56 1
  144   136    24 1
  145   137    24 1
  146   139   138 1
  147   140   139 1
  148   141   140 1
  149   142   140 1
  150   143   142 1
  151   144   138 1
  152   144   143 1
  153   145   144 1
  154   146   145 1
  155   147   146 1
  156   148   147 1
  157   149   148 1
  158   150   149 1
  159   151   150 1
  160   152   151 1
  161   153   152 1
  162   154   138 1
  163   155   138 1
  164   156   143 1
  165   157   147 1
  166   158   151 1
  167   160   159 1
  168   161   160 1
  169   162   161 1
  170   163   161 1
  171   164   163 1
  172   165   159 1
  173   165   164 1
  174   166   165 1
  175   167   166 1
  176   168   167 1
  177   169   168 1
  178   170   169 1
  179   171   170 1
  180   172   171 1
  181   173   172 1
  182   174   153 1
  183   174   173 1
  184   175   159 1
  185   176   159 1
  186   177   164 1
  187   178   168 1
  188   179   172 1
  189   180   179 1
  190   181   179 1
  191   182   179 1
  192   183   178 1
  193   184   178 1
  194   185   178 1
  195   186   177 1
  196   187   177 1
  197   188   177 1
  198   189   176 1
  199   190   176 1
  200   191   176 1
  201   192   175 1
  202   193   175 1
  203   194   175 1
  204   195   160 1
  205   196   160 1
  206   197   158 1
  207   198   158 1
  208   199   158 1
  209   200   157 1
  210   201   157 1
  211   202   157 1
  212   203   156 1
  213   204   156 1
  214   205   156 1
  215   206   155 1
  216   207   155 1
  217   208   155 1
  218   209   154 1
  219   210   154 1
  220   211   154 1
  221   212   141 1
  222   213   146 1
  223   214   145 1
  224   215   142 1
  225   216   142 1
  226   217   174 1
  227   218   173 1
  228   219   171 1
  229   220   170 1
  230   221   169 1
  231   222   140 1
  232   223   167 1
  233   224   166 1
  234   225   165 1
  235   226   163 1
  236   227   161 1
  237   228   139 1
  238   229   139 1
  239   230   153 1
  240   231   152 1
  241   232   150 1
  242   233   149 1
  243   234   148 1
  244   235   162 1
  245   65    153 1
  246   65    174 1
@<TRIPOS>SUBSTRUCTURE
      1 CLA               1 ****               0 ****  **** 
      2 LUT             138 ****               0 ****  **** 
