@<TRIPOS>MOLECULE
Cpptraj generated mol2 file.
  235   246     2     0     0
SMALL
USER_CHARGES


@<TRIPOS>ATOM
      1 CAA        77.8070   58.2637   35.2382 a2         1 CLA     -0.055900
      2 CAB        77.9119   62.4497   43.9812 c8         1 CLA     -0.148500
      3 CAC        70.8252   58.5128   43.6856 a2         1 CLA     -0.012600
      4 CAD        73.6081   55.7166   36.4804 ck         1 CLA      0.398800
      5 NA         76.8400   58.7728   38.6081 ns         1 CLA     -0.225500
      6 CBA        79.0986   57.8775   34.4342 a2         1 CLA     -0.135000
      7 CBB        76.9779   63.1170   44.7227 c0         1 CLA     -0.395200
      8 CBC        71.0452   56.9906   43.9189 a3         1 CLA     -0.037700
      9 CBD        75.1600   56.1561   36.3713 a1         1 CLA     -0.053900
     10 NB         76.6253   60.4607   41.0527 nm         1 CLA     -0.295700
     11 OBD        72.9202   55.0294   35.7185 o2         1 CLA     -0.494600
     12 CGA        79.4231   56.4340   34.1514 c4         1 CLA      0.827000
     13 CGD        76.0313   54.9505   36.2279 c4         1 CLA      0.655300
     14 ND         73.9713   57.9667   39.1500 nm         1 CLA     -0.291600
     15 CED        77.0710   53.1539   37.4604 a3         1 CLA      0.005400
     16 CHA        75.4960   57.1668   37.3928 cs         1 CLA     -0.123800
     17 CHB        78.6612   60.0478   39.6392 aa         1 CLA     -0.291900
     18 CHC        75.2844   60.8046   43.0961 aa         1 CLA     -0.090400
     19 CHD        72.0258   58.1450   40.6324 aa         1 CLA     -0.052000
     20 CMA        80.1638   57.9564   38.1464 a3         1 CLA     -0.230700
     21 CMB        80.0495   62.0946   41.6311 a3         1 CLA     -0.180800
     22 CMC        73.0059   60.4242   45.2133 a3         1 CLA     -0.134000
     23 CMD        70.6303   56.3428   38.2356 a3         1 CLA     -0.141100
     24 C1         80.6199   54.4429   34.8877 a2         1 CLA      0.023000
     25 C1A        76.7020   57.9187   37.5864 ac         1 CLA     -0.015100
     26 C1B        77.9776   60.6523   40.7338 cr         1 CLA      0.054700
     27 C1C        74.0953   60.0940   42.7939 cn         1 CLA     -0.005600
     28 C1D        72.6230   57.6649   39.4517 ap         1 CLA     -0.047300
     29 O1A        79.0774   55.9278   33.1045 o2         1 CLA     -0.610800
     30 O1D        76.7389   54.6024   35.2959 o2         1 CLA     -0.558200
     31 C2         80.9051   53.9006   36.2351 c8         1 CLA     -0.325100
     32 C2A        77.9603   57.7827   36.7421 a1         1 CLA      0.098600
     33 C2B        78.5903   61.5175   41.7356 cb         1 CLA      0.088500
     34 C2C        72.9964   59.9583   43.7199 cb         1 CLA      0.053700
     35 C2D        72.0476   56.8370   38.4217 cb         1 CLA      0.058900
     36 O2A        80.1085   55.7850   35.1255 o1         1 CLA     -0.437200
     37 O2D        76.2184   54.3060   37.4602 o1         1 CLA     -0.357600
     38 C3         82.1381   53.6759   36.9171 c5         1 CLA      0.031200
     39 C3A        78.9459   58.7016   37.5651 a1         1 CLA      0.166800
     40 C3B        77.6886   61.7096   42.7808 cb         1 CLA      0.035000
     41 C3C        72.0839   59.1117   43.0679 cb         1 CLA     -0.089900
     42 C3D        73.1813   56.5471   37.6388 cb         1 CLA     -0.035900
     43 C4         83.1656   52.5739   36.7130 a3         1 CLA     -0.053300
     44 C4A        78.0981   59.2461   38.6747 ac         1 CLA      0.001800
     45 C4B        76.4419   60.9742   42.3281 cn         1 CLA     -0.020900
     46 C4C        72.6351   58.8966   41.6950 cr         1 CLA     -0.044400
     47 C4D        74.2698   57.3219   38.0494 c6         1 CLA     -0.046000
     48 C5         82.3798   54.6799   38.0031 a2         1 CLA     -0.070400
     49 C6         83.2087   55.9095   37.6613 a2         1 CLA      0.043900
     50 C7         83.5349   56.6974   38.8745 a2         1 CLA     -0.150000
     51 C8         84.0392   58.1513   38.5554 a1         1 CLA      0.064200
     52 C9         85.4434   58.0429   37.9452 a3         1 CLA     -0.259300
     53 C10        84.1571   58.9409   39.9702 a2         1 CLA     -0.071900
     54 C11        82.9256   59.0498   40.9011 a2         1 CLA      0.014500
     55 C12        83.1594   59.9224   42.1070 a2         1 CLA     -0.112100
     56 C13        84.3368   59.5110   43.0693 a1         1 CLA      0.089200
     57 C14        84.2329   58.0527   43.7671 a3         1 CLA     -0.239100
     58 C15        84.7197   60.4749   44.2149 a2         1 CLA     -0.102200
     59 C16        83.7074   60.7478   45.3848 a2         1 CLA      0.023900
     60 C17        84.3728   61.1813   46.6966 a2         1 CLA     -0.105700
     61 C18        83.4111   61.7966   47.7276 a1         1 CLA      0.206800
     62 C19        84.0907   61.9816   49.0402 a3         1 CLA     -0.280100
     63 C20        82.6647   63.0174   47.2837 a3         1 CLA     -0.280100
     64 NC         73.8464   59.4466   41.5822 nx         1 CLA     -0.309200
     65 MG         75.3279   59.2284   40.0404 mg         1 CLA      0.895000
     66 HMD3       70.1783   56.0781   39.1834 dc         1 CLA      0.064300
     67 HMD2       70.0182   57.1376   37.8655 dc         1 CLA      0.064300
     68 HMD1       70.5632   55.4560   37.6296 dc         1 CLA      0.064300
     69 HMC3       73.0382   61.5162   45.1828 dc         1 CLA      0.052100
     70 HMC2       72.1307   59.9629   45.7201 dc         1 CLA      0.052100
     71 HMC1       73.9024   60.0479   45.7524 dc         1 CLA      0.052100
     72 HMB3       80.7221   61.3821   42.0222 dc         1 CLA      0.063600
     73 HMB2       80.0981   62.2645   40.5247 dc         1 CLA      0.063600
     74 HMB1       80.0391   63.0949   42.1727 dc         1 CLA      0.063600
     75 HMA3       79.8987   57.1098   38.8913 dc         1 CLA      0.058300
     76 HMA2       80.7330   57.5595   37.2753 dc         1 CLA      0.058300
     77 HMA1       80.7616   58.7539   38.5429 dc         1 CLA      0.058300
     78 HED3       77.4265   52.8663   38.5135 dc         1 CLA      0.079300
     79 HED2       76.5823   52.4109   36.8815 dc         1 CLA      0.079300
     80 HED1       77.9882   53.3236   36.9483 dc         1 CLA      0.079300
     81 HBC3       70.0479   56.7218   43.9569 dc         1 CLA      0.016300
     82 HBC2       71.6814   56.6077   43.0809 dc         1 CLA      0.016300
     83 HBC1       71.5121   56.7322   44.9066 dc         1 CLA      0.016300
     84 HBB2       77.2409   63.6303   45.6972 da         1 CLA      0.183000
     85 HBB1       75.9494   63.1627   44.3276 da         1 CLA      0.183000
     86 HBA2       79.0873   58.2669   33.4119 dc         1 CLA      0.029400
     87 HBA1       80.0054   58.2224   34.9772 dc         1 CLA      0.029400
     88 HAC2       70.5615   58.9311   44.6150 dc         1 CLA      0.029300
     89 HAC1       69.9644   58.6701   42.9808 dc         1 CLA      0.029300
     90 HAA2       76.9519   57.7022   34.8412 dc         1 CLA      0.028700
     91 HAA1       77.5805   59.2792   35.2203 dc         1 CLA      0.028700
     92 H203       83.4310   63.7765   47.0218 dc         1 CLA      0.065600
     93 H202       82.1430   62.8380   46.4168 dc         1 CLA      0.065600
     94 H201       81.9936   63.4060   48.0880 dc         1 CLA      0.065600
     95 H193       84.6632   62.8817   48.9366 dc         1 CLA      0.065600
     96 H192       83.2726   62.0885   49.7200 dc         1 CLA      0.065600
     97 H191       84.7176   61.1480   49.3612 dc         1 CLA      0.065600
     98 H172       84.8703   60.3171   47.0797 dc         1 CLA      0.027600
     99 H171       85.1972   61.8866   46.5661 dc         1 CLA      0.027600
    100 H162       83.0975   61.5200   45.0064 dc         1 CLA      0.002900
    101 H161       83.1798   59.8077   45.4820 dc         1 CLA      0.002900
    102 H152       85.5800   59.9601   44.5704 dc         1 CLA      0.029100
    103 H151       85.1789   61.4863   43.9283 dc         1 CLA      0.029100
    104 H143       85.0185   57.8603   44.4833 dc         1 CLA      0.063600
    105 H142       83.3246   57.7240   44.3069 dc         1 CLA      0.063600
    106 H141       84.3021   57.2615   43.0481 dc         1 CLA      0.063600
    107 H122       83.4629   60.9198   41.7082 dc         1 CLA      0.032500
    108 H121       82.2280   60.0199   42.7326 dc         1 CLA      0.032500
    109 H112       82.0873   59.4780   40.2587 dc         1 CLA      0.006600
    110 H111       82.6796   58.0893   41.3782 dc         1 CLA      0.006600
    111 H102       84.9254   58.4370   40.4956 dc         1 CLA      0.024100
    112 H101       84.6111   59.9159   39.8419 dc         1 CLA      0.024100
    113 HHD        70.9642   57.9039   40.7559 da         1 CLA      0.174300
    114 HHC        75.1809   61.0940   44.1062 da         1 CLA      0.136800
    115 HHB        79.6767   60.3158   39.5467 da         1 CLA      0.138300
    116 HBD        75.1434   56.7414   35.4123 dc         1 CLA      0.107700
    117 HAB        78.9926   62.3965   44.2956 da         1 CLA      0.155200
    118 H93        86.1812   57.3404   38.5280 dc         1 CLA      0.069500
    119 H92        85.3917   57.5084   36.9537 dc         1 CLA      0.069500
    120 H91        85.7389   59.0511   37.8314 dc         1 CLA      0.069500
    121 H8         83.4295   58.6841   37.7458 dc         1 CLA      0.029300
    122 H72        82.5608   56.6970   39.3702 dc         1 CLA      0.044400
    123 H71        84.1429   56.1712   39.6088 dc         1 CLA      0.044400
    124 H62        84.0849   55.5633   37.2665 dc         1 CLA      0.015600
    125 H61        82.7190   56.4807   36.9078 dc         1 CLA      0.015600
    126 H52        81.4462   55.1740   38.2579 dc         1 CLA      0.033200
    127 H51        82.7817   54.0699   38.7987 dc         1 CLA      0.033200
    128 H43        82.6445   51.8078   36.1190 dc         1 CLA      0.037000
    129 H42        84.0481   53.0342   36.2689 dc         1 CLA      0.037000
    130 H41        83.4509   52.1027   37.6270 dc         1 CLA      0.037000
    131 H3A        79.2812   59.5838   36.9610 dc         1 CLA      0.041100
    132 H2A        78.3584   56.7607   36.8736 dc         1 CLA      0.083100
    133 H2         80.0733   53.3192   36.5884 da         1 CLA      0.180900
    134 H18        82.5803   61.1260   47.7659 dc         1 CLA     -0.003900
    135 H13        85.3162   59.4222   42.5250 dc         1 CLA      0.019700
    136 H12        79.8289   53.9846   34.3996 dc         1 CLA      0.120400
    137 H11        81.5395   54.4563   34.2612 dc         1 CLA      0.120400
    138 C1         67.4728   62.5017   51.0678 Z1         2 LUT      0.509236
    139 C2         67.3868   63.8077   51.9474 Z2         2 LUT     -0.434695
    140 C3         66.0847   64.6587   51.8939 Z3         2 LUT      0.437453
    141 O3         66.3743   66.0469   52.1009 S1         2 LUT     -0.547129
    142 C4         65.3642   64.4578   50.5928 Z4         2 LUT     -0.468603
    143 C5         66.1223   63.9034   49.4402 Z5         2 LUT      0.279246
    144 C6         66.9834   62.8147   49.6058 Z6         2 LUT     -0.305473
    145 C7         67.7319   62.3728   48.4849 Z7         2 LUT      0.069402
    146 C8         68.5603   63.1177   47.6992 Z8         2 LUT     -0.191631
    147 C9         69.0919   62.6746   46.4562 Z9         2 LUT      0.196698
    148 C10        70.1932   63.3371   45.9374 Y1         2 LUT     -0.208611
    149 C11        70.8172   63.1678   44.6619 Y2         2 LUT      0.030784
    150 C12        71.9525   63.7493   44.1719 Y3         2 LUT     -0.220316
    151 C13        72.6377   63.7022   42.9091 Y4         2 LUT      0.215937
    152 C14        73.8483   64.3435   42.8562 Y5         2 LUT     -0.185793
    153 C15        74.8477   64.3692   41.8356 Y6         2 LUT     -0.057835
    154 C16        66.4101   61.4942   51.6453 Y7         2 LUT     -0.405615
    155 C17        68.8238   61.7739   51.0494 Y7         2 LUT     -0.405615
    156 C18        66.0413   64.7917   48.2354 Y9         2 LUT     -0.369639
    157 C19        68.2638   61.5924   45.7914 W1         2 LUT     -0.333362
    158 C20        72.1276   62.7353   41.8995 W2         2 LUT     -0.323439
    159 C21        86.6725   65.6436   36.1286 Z1         2 LUT      0.406104
    160 C22        87.3264   64.7939   34.9660 Z2         2 LUT     -0.404965
    161 C23        87.4401   65.5472   33.6547 Z3         2 LUT      0.391255
    162 O23        87.7169   64.4829   32.6878 S1         2 LUT     -0.528210
    163 C24        86.1753   66.3304   33.2386 W6         2 LUT     -0.258361
    164 C25        85.1910   66.5365   34.1055 Z5         2 LUT      0.133546
    165 C26        85.2603   66.0019   35.5431 W8         2 LUT     -0.147008
    166 C27        84.3579   66.6965   36.5411 Z7         2 LUT      0.023843
    167 C28        83.1236   66.2812   36.8438 Z8         2 LUT     -0.216987
    168 C29        82.2820   66.5392   38.0748 Z9         2 LUT      0.206524
    169 C30        81.0767   65.8886   38.4048 Y1         2 LUT     -0.215556
    170 C31        80.2564   66.0837   39.6499 Y2         2 LUT      0.025142
    171 C32        79.0769   65.5219   39.8291 Y3         2 LUT     -0.212209
    172 C33        78.3453   65.6363   41.0684 Y4         2 LUT      0.240937
    173 C34        77.0757   65.1143   40.9946 Y5         2 LUT     -0.218862
    174 C35        76.0352   65.0176   42.0092 Y6         2 LUT     -0.023547
    175 C36        87.6220   66.8335   36.5140 Y7         2 LUT     -0.393485
    176 C37        86.6812   64.7287   37.3681 Y7         2 LUT     -0.393485
    177 C38        84.1027   67.4808   33.6578 Y9         2 LUT     -0.387526
    178 C39        82.6916   67.7298   38.9354 W1         2 LUT     -0.322618
    179 C40        78.9536   66.4072   42.2246 W2         2 LUT     -0.358472
    180 H403       79.0873   67.4756   41.8852 R7         2 LUT      0.097720
    181 H402       78.4213   66.4956   43.1725 R7         2 LUT      0.097720
    182 H401       79.8443   65.9924   42.5683 R7         2 LUT      0.097720
    183 H393       81.8358   68.2966   39.2270 R4         2 LUT      0.082505
    184 H392       83.2919   67.3885   39.8002 R4         2 LUT      0.082505
    185 H391       83.2701   68.3481   38.2521 R4         2 LUT      0.082505
    186 H383       84.3471   67.8563   32.6872 R1         2 LUT      0.104030
    187 H382       83.0961   67.0317   33.7237 R1         2 LUT      0.104030
    188 H381       84.1510   68.3652   34.3902 R1         2 LUT      0.104030
    189 H373       86.3756   65.2037   38.2715 T4         2 LUT      0.089537
    190 H372       85.9931   63.9113   37.1628 T4         2 LUT      0.089537
    191 H371       87.6601   64.2979   37.6251 T4         2 LUT      0.089537
    192 H363       87.6881   67.5566   35.6981 T4         2 LUT      0.089537
    193 H362       87.4610   67.2326   37.4844 T4         2 LUT      0.089537
    194 H361       88.6324   66.3898   36.5582 T4         2 LUT      0.089537
    195 H222       88.3790   64.5647   35.2357 U2         2 LUT      0.127376
    196 H221       86.6892   63.8819   34.8100 U2         2 LUT      0.127376
    197 H203       72.8099   62.3339   41.1739 R7         2 LUT      0.087068
    198 H202       71.7967   61.7837   42.4042 R7         2 LUT      0.087068
    199 H201       71.3593   63.1449   41.3062 R7         2 LUT      0.087068
    200 H193       68.2650   60.6403   46.3898 R4         2 LUT      0.089716
    201 H192       67.2326   61.8159   45.7306 R4         2 LUT      0.089716
    202 H191       68.5025   61.3589   44.7701 R4         2 LUT      0.089716
    203 H183       65.1434   65.4081   48.2456 R1         2 LUT      0.094572
    204 H182       66.9007   65.4448   48.3195 R1         2 LUT      0.094572
    205 H181       66.1587   64.2228   47.2804 R1         2 LUT      0.094572
    206 H173       68.7672   60.7790   50.5306 T4         2 LUT      0.093752
    207 H172       69.5157   62.4334   50.5339 T4         2 LUT      0.093752
    208 H171       69.1023   61.6015   52.0876 T4         2 LUT      0.093752
    209 H163       66.3729   60.6419   50.9441 T4         2 LUT      0.093752
    210 H162       66.8077   60.9755   52.5791 T4         2 LUT      0.093752
    211 H161       65.3243   61.8556   51.7000 T4         2 LUT      0.093752
    212 HO3        65.5980   66.4710   52.5567 Q1         2 LUT      0.300121
    213 H8         68.7338   64.0789   48.0193 U7         2 LUT      0.080784
    214 H7         67.6162   61.3349   48.1941 U6         2 LUT      0.042190
    215 H42        64.4590   63.8432   50.7805 U5         2 LUT      0.145166
    216 H41        64.8674   65.3155   50.3303 U5         2 LUT      0.145166
    217 H35        76.2148   65.5086   42.9519 T3         2 LUT      0.077919
    218 H34        76.7489   64.8467   40.0150 T2         2 LUT      0.073626
    219 H32        78.7011   64.8362   39.0312 T1         2 LUT      0.092510
    220 H31        80.7300   66.7328   40.3966 U9         2 LUT      0.070048
    221 H30        80.7296   65.1061   37.7279 U8         2 LUT      0.085442
    222 H3         65.3316   64.2415   52.6057 U3         2 LUT     -0.031596
    223 H28        82.6325   65.5676   36.2023 U7         2 LUT      0.084728
    224 H27        85.0283   67.3171   37.1682 U6         2 LUT      0.087291
    225 H26        84.8878   64.9855   35.4448 Q6         2 LUT      0.075325
    226 H24        86.0605   66.5899   32.1986 Q5         2 LUT      0.094482
    227 H23        88.3526   66.2694   33.7412 U3         2 LUT     -0.024869
    228 H22        67.5883   63.6012   52.9823 U2         2 LUT      0.127376
    229 H21        68.1071   64.4540   51.4757 U2         2 LUT      0.127376
    230 H15        74.7456   63.8849   40.9169 T3         2 LUT      0.093200
    231 H14        74.1712   64.8531   43.7759 T2         2 LUT      0.068865
    232 H12        72.5527   64.3350   44.8500 T1         2 LUT      0.095507
    233 H11        70.2314   62.4675   44.0440 U9         2 LUT      0.068930
    234 H10        70.6772   64.0847   46.5528 U8         2 LUT      0.083911
    235 H1         87.9564   64.7579   31.7588 Q1         2 LUT      0.297311
@<TRIPOS>BOND
    1     6     1 1
    2     7     2 1
    3     8     3 1
    4     9     4 1
    5    11     4 1
    6    12     6 1
    7    13     9 1
    8    16     9 1
    9    25     5 1
   10    25    16 1
   11    26    10 1
   12    26    17 1
   13    27    18 1
   14    28    14 1
   15    28    19 1
   16    29    12 1
   17    30    13 1
   18    31    24 1
   19    32     1 1
   20    32    25 1
   21    33    21 1
   22    33    26 1
   23    34    22 1
   24    34    27 1
   25    35    23 1
   26    35    28 1
   27    36    12 1
   28    36    24 1
   29    37    13 1
   30    37    15 1
   31    38    31 1
   32    39    20 1
   33    39    32 1
   34    40     2 1
   35    40    33 1
   36    41     3 1
   37    41    34 1
   38    42     4 1
   39    42    35 1
   40    43    38 1
   41    44     5 1
   42    44    17 1
   43    44    39 1
   44    45    10 1
   45    45    18 1
   46    45    40 1
   47    46    19 1
   48    46    41 1
   49    47    14 1
   50    47    16 1
   51    47    42 1
   52    48    38 1
   53    49    48 1
   54    50    49 1
   55    51    50 1
   56    52    51 1
   57    53    51 1
   58    54    53 1
   59    55    54 1
   60    56    55 1
   61    57    56 1
   62    58    56 1
   63    59    58 1
   64    60    59 1
   65    61    60 1
   66    62    61 1
   67    63    61 1
   68    64    27 1
   69    64    46 1
   70    65     5 1
   71    65    10 1
   72    65    64 1
   73    65    14 1
   74    66    23 1
   75    67    23 1
   76    68    23 1
   77    69    22 1
   78    70    22 1
   79    71    22 1
   80    72    21 1
   81    73    21 1
   82    74    21 1
   83    75    20 1
   84    76    20 1
   85    77    20 1
   86    78    15 1
   87    79    15 1
   88    80    15 1
   89    81     8 1
   90    82     8 1
   91    83     8 1
   92    84     7 1
   93    85     7 1
   94    86     6 1
   95    87     6 1
   96    88     3 1
   97    89     3 1
   98    90     1 1
   99    91     1 1
  100    92    63 1
  101    93    63 1
  102    94    63 1
  103    95    62 1
  104    96    62 1
  105    97    62 1
  106    98    60 1
  107    99    60 1
  108   100    59 1
  109   101    59 1
  110   102    58 1
  111   103    58 1
  112   104    57 1
  113   105    57 1
  114   106    57 1
  115   107    55 1
  116   108    55 1
  117   109    54 1
  118   110    54 1
  119   111    53 1
  120   112    53 1
  121   113    19 1
  122   114    18 1
  123   115    17 1
  124   116     9 1
  125   117     2 1
  126   118    52 1
  127   119    52 1
  128   120    52 1
  129   121    51 1
  130   122    50 1
  131   123    50 1
  132   124    49 1
  133   125    49 1
  134   126    48 1
  135   127    48 1
  136   128    43 1
  137   129    43 1
  138   130    43 1
  139   131    39 1
  140   132    32 1
  141   133    31 1
  142   134    61 1
  143   135    56 1
  144   136    24 1
  145   137    24 1
  146   139   138 1
  147   140   139 1
  148   141   140 1
  149   142   140 1
  150   143   142 1
  151   144   138 1
  152   144   143 1
  153   145   144 1
  154   146   145 1
  155   147   146 1
  156   148   147 1
  157   149   148 1
  158   150   149 1
  159   151   150 1
  160   152   151 1
  161   153   152 1
  162   154   138 1
  163   155   138 1
  164   156   143 1
  165   157   147 1
  166   158   151 1
  167   160   159 1
  168   161   160 1
  169   162   161 1
  170   163   161 1
  171   164   163 1
  172   165   159 1
  173   165   164 1
  174   166   165 1
  175   167   166 1
  176   168   167 1
  177   169   168 1
  178   170   169 1
  179   171   170 1
  180   172   171 1
  181   173   172 1
  182   174   153 1
  183   174   173 1
  184   175   159 1
  185   176   159 1
  186   177   164 1
  187   178   168 1
  188   179   172 1
  189   180   179 1
  190   181   179 1
  191   182   179 1
  192   183   178 1
  193   184   178 1
  194   185   178 1
  195   186   177 1
  196   187   177 1
  197   188   177 1
  198   189   176 1
  199   190   176 1
  200   191   176 1
  201   192   175 1
  202   193   175 1
  203   194   175 1
  204   195   160 1
  205   196   160 1
  206   197   158 1
  207   198   158 1
  208   199   158 1
  209   200   157 1
  210   201   157 1
  211   202   157 1
  212   203   156 1
  213   204   156 1
  214   205   156 1
  215   206   155 1
  216   207   155 1
  217   208   155 1
  218   209   154 1
  219   210   154 1
  220   211   154 1
  221   212   141 1
  222   213   146 1
  223   214   145 1
  224   215   142 1
  225   216   142 1
  226   217   174 1
  227   218   173 1
  228   219   171 1
  229   220   170 1
  230   221   169 1
  231   222   140 1
  232   223   167 1
  233   224   166 1
  234   225   165 1
  235   226   163 1
  236   227   161 1
  237   228   139 1
  238   229   139 1
  239   230   153 1
  240   231   152 1
  241   232   150 1
  242   233   149 1
  243   234   148 1
  244   235   162 1
  245   65    153 1
  246   65    174 1
@<TRIPOS>SUBSTRUCTURE
      1 CLA               1 ****               0 ****  **** 
      2 LUT             138 ****               0 ****  **** 
