@<TRIPOS>MOLECULE
Cpptraj generated mol2 file.
  235   246     2     0     0
SMALL
USER_CHARGES


@<TRIPOS>ATOM
      1 CAA        79.7790   57.2653   35.1398 a2         1 CLA     -0.055900
      2 CAB        80.3298   61.6241   43.9465 c8         1 CLA     -0.148500
      3 CAC        73.2515   57.7050   43.7903 a2         1 CLA     -0.012600
      4 CAD        75.7545   55.1022   36.5164 ck         1 CLA      0.398800
      5 NA         78.9965   58.0676   38.5221 ns         1 CLA     -0.225500
      6 CBA        80.8919   56.9049   34.1844 a2         1 CLA     -0.135000
      7 CBB        81.2502   62.6152   44.2068 c0         1 CLA     -0.395200
      8 CBC        73.4556   56.2884   44.2409 a3         1 CLA     -0.037700
      9 CBD        77.2318   55.4699   36.1905 a1         1 CLA     -0.053900
     10 NB         78.9408   59.6118   41.0617 nm         1 CLA     -0.295700
     11 OBD        75.0934   54.3527   35.8404 o2         1 CLA     -0.494600
     12 CGA        81.3243   55.4122   34.0839 c4         1 CLA      0.827000
     13 CGD        77.9854   54.2006   36.1115 c4         1 CLA      0.655300
     14 ND         76.1854   57.3853   39.2074 nm         1 CLA     -0.291600
     15 CED        78.3409   52.0360   37.1198 a3         1 CLA      0.005400
     16 CHA        77.6012   56.4841   37.3584 cs         1 CLA     -0.123800
     17 CHB        80.8809   59.2269   39.5303 aa         1 CLA     -0.291900
     18 CHC        77.6256   60.1878   43.0337 aa         1 CLA     -0.090400
     19 CHD        74.3587   57.2945   40.8539 aa         1 CLA     -0.052000
     20 CMA        82.3471   57.0142   37.9951 a3         1 CLA     -0.230700
     21 CMB        82.4369   60.8776   41.7106 a3         1 CLA     -0.180800
     22 CMC        75.3758   59.7132   45.2323 a3         1 CLA     -0.134000
     23 CMD        72.9745   55.7672   38.6267 a3         1 CLA     -0.141100
     24 C1         82.5098   53.6684   35.0234 a2         1 CLA      0.023000
     25 C1A        78.8274   57.0917   37.5689 ac         1 CLA     -0.015100
     26 C1B        80.2702   59.7370   40.7190 cr         1 CLA      0.054700
     27 C1C        76.4679   59.4711   42.7776 cn         1 CLA     -0.005600
     28 C1D        74.9306   56.9950   39.6523 ap         1 CLA     -0.047300
     29 O1A        80.9504   54.6276   33.1910 o2         1 CLA     -0.610800
     30 O1D        78.7852   53.9435   35.2115 o2         1 CLA     -0.558200
     31 C2         83.2016   53.1979   36.2885 c8         1 CLA     -0.325100
     32 C2A        80.0802   56.8951   36.6383 a1         1 CLA      0.098600
     33 C2B        80.9425   60.5013   41.7638 cb         1 CLA      0.088500
     34 C2C        75.4083   59.2341   43.7605 cb         1 CLA      0.053700
     35 C2D        74.3496   56.1960   38.6268 cb         1 CLA      0.058900
     36 O2A        82.0753   55.0681   35.1467 o1         1 CLA     -0.437200
     37 O2D        77.6123   53.3199   37.0871 o1         1 CLA     -0.357600
     38 C3         84.4302   52.5846   36.2494 c5         1 CLA      0.031200
     39 C3A        81.1703   57.7935   37.3842 a1         1 CLA      0.166800
     40 C3B        80.0409   60.9787   42.6805 cb         1 CLA      0.035000
     41 C3C        74.4890   58.3573   43.1392 cb         1 CLA     -0.089900
     42 C3D        75.3609   55.8838   37.7584 cb         1 CLA     -0.035900
     43 C4         84.5330   51.1590   35.8145 a3         1 CLA     -0.053300
     44 C4A        80.3061   58.4254   38.5101 ac         1 CLA      0.001800
     45 C4B        78.8268   60.2519   42.2920 cn         1 CLA     -0.020900
     46 C4C        74.9907   58.1222   41.7612 cr         1 CLA     -0.044400
     47 C4D        76.3969   56.6614   38.1233 c6         1 CLA     -0.046000
     48 C5         85.6387   53.5023   36.4130 a2         1 CLA     -0.070400
     49 C6         86.3502   53.2082   37.7463 a2         1 CLA      0.043900
     50 C7         87.4822   54.2468   37.9621 a2         1 CLA     -0.150000
     51 C8         87.2312   55.4512   38.9779 a1         1 CLA      0.064200
     52 C9         86.2941   56.5399   38.3693 a3         1 CLA     -0.259300
     53 C10        88.5667   55.9753   39.5633 a2         1 CLA     -0.071900
     54 C11        88.3497   56.9362   40.7394 a2         1 CLA      0.014500
     55 C12        88.1867   56.1846   42.0503 a2         1 CLA     -0.112100
     56 C13        88.4414   57.1153   43.3394 a1         1 CLA      0.089200
     57 C14        89.8943   57.5162   43.4649 a3         1 CLA     -0.239100
     58 C15        88.0029   56.4476   44.7162 a2         1 CLA     -0.102200
     59 C16        87.8951   57.3853   45.9486 a2         1 CLA      0.023900
     60 C17        86.9743   58.6026   45.7863 a2         1 CLA     -0.105700
     61 C18        85.4361   58.3743   45.4808 a1         1 CLA      0.206800
     62 C19        84.7208   57.6669   46.6465 a3         1 CLA     -0.280100
     63 C20        84.5762   59.4910   44.8844 a3         1 CLA     -0.280100
     64 NC         76.1587   58.8535   41.5857 nx         1 CLA     -0.309200
     65 MG         77.5588   58.6956   40.0433 mg         1 CLA      0.895000
     66 HMD3       72.6830   55.4855   39.6239 dc         1 CLA      0.064300
     67 HMD2       72.3336   56.6370   38.3815 dc         1 CLA      0.064300
     68 HMD1       72.8123   54.8857   37.9701 dc         1 CLA      0.064300
     69 HMC3       76.3701   59.6907   45.7009 dc         1 CLA      0.052100
     70 HMC2       75.0417   60.7876   45.2952 dc         1 CLA      0.052100
     71 HMC1       74.7317   59.0543   45.7717 dc         1 CLA      0.052100
     72 HMB3       82.5450   61.8319   41.2498 dc         1 CLA      0.063600
     73 HMB2       82.7815   60.9735   42.7443 dc         1 CLA      0.063600
     74 HMB1       83.0673   60.1928   41.2153 dc         1 CLA      0.063600
     75 HMA3       83.1814   57.7203   38.1864 dc         1 CLA      0.058300
     76 HMA2       82.0016   56.5638   38.9542 dc         1 CLA      0.058300
     77 HMA1       82.8279   56.4123   37.2604 dc         1 CLA      0.058300
     78 HED3       78.4302   51.6350   36.1033 dc         1 CLA      0.079300
     79 HED2       79.3844   52.4397   37.4261 dc         1 CLA      0.079300
     80 HED1       77.8544   51.3596   37.9011 dc         1 CLA      0.079300
     81 HBC3       74.2478   56.1859   44.9698 dc         1 CLA      0.016300
     82 HBC2       72.4867   56.1218   44.7165 dc         1 CLA      0.016300
     83 HBC1       73.6765   55.6015   43.4767 dc         1 CLA      0.016300
     84 HBB2       81.3545   62.9632   45.2433 da         1 CLA      0.183000
     85 HBB1       81.8537   63.1379   43.3932 da         1 CLA      0.183000
     86 HBA2       80.6785   57.1937   33.1542 dc         1 CLA      0.029400
     87 HBA1       81.7278   57.4532   34.4339 dc         1 CLA      0.029400
     88 HAC2       73.0732   58.2144   44.6614 dc         1 CLA      0.029300
     89 HAC1       72.4198   57.8623   43.2143 dc         1 CLA      0.029300
     90 HAA2       78.9832   56.7252   34.6296 dc         1 CLA      0.028700
     91 HAA1       79.4608   58.3464   35.1172 dc         1 CLA      0.028700
     92 H203       84.7461   60.3223   45.6460 dc         1 CLA      0.065600
     93 H202       85.1088   59.7370   43.9499 dc         1 CLA      0.065600
     94 H201       83.5063   59.1721   44.8062 dc         1 CLA      0.065600
     95 H193       84.3257   58.2319   47.4420 dc         1 CLA      0.065600
     96 H192       83.8398   57.1797   46.1601 dc         1 CLA      0.065600
     97 H191       85.3511   56.9440   47.1577 dc         1 CLA      0.065600
     98 H172       87.0226   59.0286   46.7882 dc         1 CLA      0.027600
     99 H171       87.3742   59.2398   45.0612 dc         1 CLA      0.027600
    100 H162       87.5610   56.7382   46.7676 dc         1 CLA      0.002900
    101 H161       88.9396   57.6922   46.1838 dc         1 CLA      0.002900
    102 H152       87.0561   55.9257   44.6334 dc         1 CLA      0.029100
    103 H151       88.7728   55.7036   44.9711 dc         1 CLA      0.029100
    104 H143       90.5546   56.6647   43.5456 dc         1 CLA      0.063600
    105 H142       90.1947   57.9539   42.5226 dc         1 CLA      0.063600
    106 H141       90.1819   58.2100   44.2106 dc         1 CLA      0.063600
    107 H122       87.2106   55.7109   42.1715 dc         1 CLA      0.032500
    108 H121       88.8942   55.2870   42.0108 dc         1 CLA      0.032500
    109 H112       89.2426   57.5593   40.6966 dc         1 CLA      0.006600
    110 H111       87.4473   57.5467   40.5393 dc         1 CLA      0.006600
    111 H102       89.3145   55.2304   39.7797 dc         1 CLA      0.024100
    112 H101       88.9655   56.5444   38.7046 dc         1 CLA      0.024100
    113 HHD        73.5120   56.7452   41.3306 da         1 CLA      0.174300
    114 HHC        77.6932   60.8154   43.9712 da         1 CLA      0.136800
    115 HHB        81.9666   59.5086   39.3400 da         1 CLA      0.138300
    116 HBD        77.0979   55.9454   35.2346 dc         1 CLA      0.107700
    117 HAB        79.6956   61.2583   44.7450 da         1 CLA      0.155200
    118 H93        86.6960   57.0118   37.5286 dc         1 CLA      0.069500
    119 H92        85.3056   56.1047   38.3009 dc         1 CLA      0.069500
    120 H91        86.1367   57.2560   39.1337 dc         1 CLA      0.069500
    121 H8         86.6544   55.1358   39.8473 dc         1 CLA      0.029300
    122 H72        88.3015   53.6786   38.4437 dc         1 CLA      0.044400
    123 H71        87.8606   54.6574   37.0623 dc         1 CLA      0.044400
    124 H62        85.6881   53.1663   38.6339 dc         1 CLA      0.015600
    125 H61        86.7881   52.2262   37.6440 dc         1 CLA      0.015600
    126 H52        86.2398   53.2531   35.5411 dc         1 CLA      0.033200
    127 H51        85.4112   54.5289   36.3786 dc         1 CLA      0.033200
    128 H43        83.5986   50.6816   35.4699 dc         1 CLA      0.037000
    129 H42        85.1874   51.3114   34.9777 dc         1 CLA      0.037000
    130 H41        85.0467   50.5626   36.5659 dc         1 CLA      0.037000
    131 H3A        81.6447   58.5211   36.7090 dc         1 CLA      0.041100
    132 H2A        80.5343   55.8870   36.6878 dc         1 CLA      0.083100
    133 H2         82.8474   53.4062   37.2698 da         1 CLA      0.180900
    134 H18        85.4160   57.6934   44.6638 dc         1 CLA     -0.003900
    135 H13        88.0076   58.1247   43.2601 dc         1 CLA      0.019700
    136 H12        81.6945   52.9660   34.8559 dc         1 CLA      0.120400
    137 H11        83.1173   53.5720   34.1458 dc         1 CLA      0.120400
    138 C1         69.4363   61.0067   50.3975 Z1         2 LUT      0.509236
    139 C2         68.0524   60.9219   50.9213 Z2         2 LUT     -0.434695
    140 C3         67.2474   62.2538   51.2502 Z3         2 LUT      0.437453
    141 O3         67.5914   62.6820   52.5841 S1         2 LUT     -0.547129
    142 C4         67.5435   63.3452   50.3085 Z4         2 LUT     -0.468603
    143 C5         68.4925   63.0131   49.1345 Z5         2 LUT      0.279246
    144 C6         69.3416   61.9867   49.1932 Z6         2 LUT     -0.305473
    145 C7         69.9648   61.3879   47.9696 Z7         2 LUT      0.069402
    146 C8         70.8005   62.0657   47.1624 Z8         2 LUT     -0.191631
    147 C9         71.4280   61.6949   45.8545 Z9         2 LUT      0.196698
    148 C10        72.3797   62.5699   45.2411 Y1         2 LUT     -0.208611
    149 C11        73.1180   62.3459   44.0844 Y2         2 LUT      0.030784
    150 C12        74.2736   63.0757   43.8718 Y3         2 LUT     -0.220316
    151 C13        75.2423   63.0152   42.7311 Y4         2 LUT      0.215937
    152 C14        76.4164   63.6858   42.7807 Y5         2 LUT     -0.185793
    153 C15        77.6479   63.7906   41.9134 Y6         2 LUT     -0.057835
    154 C16        69.9917   59.5553   50.2407 Y7         2 LUT     -0.405615
    155 C17        70.1926   61.8478   51.4722 Y7         2 LUT     -0.405615
    156 C18        68.2023   63.8935   47.9502 Y9         2 LUT     -0.369639
    157 C19        71.0198   60.3559   45.1771 W1         2 LUT     -0.333362
    158 C20        74.8366   62.2597   41.4666 W2         2 LUT     -0.323439
    159 C21        88.6613   64.6511   35.8423 Z1         2 LUT      0.406104
    160 C22        89.3787   63.8815   34.7508 Z2         2 LUT     -0.404965
    161 C23        89.7435   64.7508   33.5524 Z3         2 LUT      0.391255
    162 O23        90.2329   63.6776   32.6328 S1         2 LUT     -0.528210
    163 C24        88.5235   65.6073   33.0995 W6         2 LUT     -0.258361
    164 C25        87.4007   65.7892   33.8291 Z5         2 LUT      0.133546
    165 C26        87.2732   65.2606   35.3206 W8         2 LUT     -0.147008
    166 C27        86.6743   66.1156   36.3411 Z7         2 LUT      0.023843
    167 C28        85.6019   65.7140   37.0934 Z8         2 LUT     -0.216987
    168 C29        85.2106   66.0881   38.4105 Z9         2 LUT      0.206524
    169 C30        83.9665   65.6008   38.7279 Y1         2 LUT     -0.215556
    170 C31        83.2289   65.6267   40.0110 Y2         2 LUT      0.025142
    171 C32        81.9595   65.1624   40.1957 Y3         2 LUT     -0.212209
    172 C33        81.1225   65.2543   41.3700 Y4         2 LUT      0.240937
    173 C34        79.9082   64.6891   41.3432 Y5         2 LUT     -0.218862
    174 C35        78.7577   64.5556   42.2712 Y6         2 LUT     -0.023547
    175 C36        89.6341   65.7345   36.4364 Y7         2 LUT     -0.393485
    176 C37        88.5234   63.5389   36.9823 Y7         2 LUT     -0.393485
    177 C38        86.2397   66.5971   33.3187 Y9         2 LUT     -0.387526
    178 C39        86.1126   66.9309   39.3205 W1         2 LUT     -0.322618
    179 C40        81.5938   66.0297   42.5293 W2         2 LUT     -0.358472
    180 H403       81.1251   65.7173   43.4804 R7         2 LUT      0.097720
    181 H402       82.6747   65.9609   42.6378 R7         2 LUT      0.097720
    182 H401       81.3710   67.0379   42.3186 R7         2 LUT      0.097720
    183 H393       86.0225   66.6049   40.3865 R4         2 LUT      0.082505
    184 H392       87.0954   66.6992   39.0913 R4         2 LUT      0.082505
    185 H391       86.0302   68.0438   39.1909 R4         2 LUT      0.082505
    186 H383       85.2571   66.2997   33.7023 R1         2 LUT      0.104030
    187 H382       86.2983   67.6195   33.7217 R1         2 LUT      0.104030
    188 H381       86.2758   66.6729   32.2442 R1         2 LUT      0.104030
    189 H373       89.4546   63.1070   37.2873 T4         2 LUT      0.089537
    190 H372       88.1486   63.9947   37.9491 T4         2 LUT      0.089537
    191 H371       87.7724   62.7219   36.6691 T4         2 LUT      0.089537
    192 H363       89.6435   66.7056   35.9318 T4         2 LUT      0.089537
    193 H362       89.2988   65.9663   37.4546 T4         2 LUT      0.089537
    194 H361       90.6883   65.3722   36.5605 T4         2 LUT      0.089537
    195 H222       90.2708   63.4494   35.2007 U2         2 LUT      0.127376
    196 H221       88.7941   63.0311   34.4390 U2         2 LUT      0.127376
    197 H203       75.6897   61.6622   41.2409 R7         2 LUT      0.087068
    198 H202       74.0430   61.5993   41.6299 R7         2 LUT      0.087068
    199 H201       74.6009   62.8286   40.5746 R7         2 LUT      0.087068
    200 H193       71.6041   60.1942   44.2991 R4         2 LUT      0.089716
    201 H192       71.3182   59.4519   45.8296 R4         2 LUT      0.089716
    202 H191       69.9355   60.1744   44.9710 R4         2 LUT      0.089716
    203 H183       68.2568   63.2456   47.0964 R1         2 LUT      0.094572
    204 H182       67.2704   64.2999   47.9587 R1         2 LUT      0.094572
    205 H181       68.9400   64.6626   47.8205 R1         2 LUT      0.094572
    206 H173       70.1802   61.5125   52.5136 T4         2 LUT      0.093752
    207 H172       71.3069   61.7785   51.2673 T4         2 LUT      0.093752
    208 H171       69.9449   62.9146   51.4148 T4         2 LUT      0.093752
    209 H163       71.0021   59.4699   49.8761 T4         2 LUT      0.093752
    210 H162       69.7223   58.9194   51.1582 T4         2 LUT      0.093752
    211 H161       69.5418   59.0574   49.3781 T4         2 LUT      0.093752
    212 HO3        67.2766   62.0060   53.2464 Q1         2 LUT      0.300121
    213 H8         71.1011   63.0290   47.5765 U7         2 LUT      0.080784
    214 H7         69.7374   60.3689   47.6698 U6         2 LUT      0.042190
    215 H42        66.5961   63.8265   50.1246 U5         2 LUT      0.145166
    216 H41        68.0090   64.2206   50.8709 U5         2 LUT      0.145166
    217 H35        78.8335   64.9473   43.3039 T3         2 LUT      0.077919
    218 H34        79.5947   64.3868   40.3200 T2         2 LUT      0.073626
    219 H32        81.6079   64.5180   39.4311 T1         2 LUT      0.092510
    220 H31        83.6331   66.2887   40.7562 U9         2 LUT      0.070048
    221 H30        83.3100   65.0618   38.0337 U8         2 LUT      0.085442
    222 H3         66.1882   62.0507   51.1449 U3         2 LUT     -0.031596
    223 H28        84.9769   64.8703   36.6767 U7         2 LUT      0.084728
    224 H27        87.2847   66.9777   36.6288 U6         2 LUT      0.087291
    225 H26        86.6382   64.4112   35.1357 Q6         2 LUT      0.075325
    226 H24        88.5771   66.1672   32.0955 Q5         2 LUT      0.094482
    227 H23        90.4651   65.5733   33.7026 U3         2 LUT     -0.024869
    228 H22        67.5130   60.6414   50.0118 U2         2 LUT      0.127376
    229 H21        67.9233   60.2536   51.7270 U2         2 LUT      0.127376
    230 H15        77.4623   63.5212   40.8940 T3         2 LUT      0.093200
    231 H14        76.4918   64.3001   43.6846 T2         2 LUT      0.068865
    232 H12        74.6523   63.8458   44.5538 T1         2 LUT      0.095507
    233 H11        72.8111   61.5289   43.3984 U9         2 LUT      0.068930
    234 H10        72.6841   63.4142   45.9213 U8         2 LUT      0.083911
    235 H1         90.2601   63.8612   31.7157 Q1         2 LUT      0.297311
@<TRIPOS>BOND
    1     6     1 1
    2     7     2 1
    3     8     3 1
    4     9     4 1
    5    11     4 1
    6    12     6 1
    7    13     9 1
    8    16     9 1
    9    25     5 1
   10    25    16 1
   11    26    10 1
   12    26    17 1
   13    27    18 1
   14    28    14 1
   15    28    19 1
   16    29    12 1
   17    30    13 1
   18    31    24 1
   19    32     1 1
   20    32    25 1
   21    33    21 1
   22    33    26 1
   23    34    22 1
   24    34    27 1
   25    35    23 1
   26    35    28 1
   27    36    12 1
   28    36    24 1
   29    37    13 1
   30    37    15 1
   31    38    31 1
   32    39    20 1
   33    39    32 1
   34    40     2 1
   35    40    33 1
   36    41     3 1
   37    41    34 1
   38    42     4 1
   39    42    35 1
   40    43    38 1
   41    44     5 1
   42    44    17 1
   43    44    39 1
   44    45    10 1
   45    45    18 1
   46    45    40 1
   47    46    19 1
   48    46    41 1
   49    47    14 1
   50    47    16 1
   51    47    42 1
   52    48    38 1
   53    49    48 1
   54    50    49 1
   55    51    50 1
   56    52    51 1
   57    53    51 1
   58    54    53 1
   59    55    54 1
   60    56    55 1
   61    57    56 1
   62    58    56 1
   63    59    58 1
   64    60    59 1
   65    61    60 1
   66    62    61 1
   67    63    61 1
   68    64    27 1
   69    64    46 1
   70    65     5 1
   71    65    10 1
   72    65    64 1
   73    65    14 1
   74    66    23 1
   75    67    23 1
   76    68    23 1
   77    69    22 1
   78    70    22 1
   79    71    22 1
   80    72    21 1
   81    73    21 1
   82    74    21 1
   83    75    20 1
   84    76    20 1
   85    77    20 1
   86    78    15 1
   87    79    15 1
   88    80    15 1
   89    81     8 1
   90    82     8 1
   91    83     8 1
   92    84     7 1
   93    85     7 1
   94    86     6 1
   95    87     6 1
   96    88     3 1
   97    89     3 1
   98    90     1 1
   99    91     1 1
  100    92    63 1
  101    93    63 1
  102    94    63 1
  103    95    62 1
  104    96    62 1
  105    97    62 1
  106    98    60 1
  107    99    60 1
  108   100    59 1
  109   101    59 1
  110   102    58 1
  111   103    58 1
  112   104    57 1
  113   105    57 1
  114   106    57 1
  115   107    55 1
  116   108    55 1
  117   109    54 1
  118   110    54 1
  119   111    53 1
  120   112    53 1
  121   113    19 1
  122   114    18 1
  123   115    17 1
  124   116     9 1
  125   117     2 1
  126   118    52 1
  127   119    52 1
  128   120    52 1
  129   121    51 1
  130   122    50 1
  131   123    50 1
  132   124    49 1
  133   125    49 1
  134   126    48 1
  135   127    48 1
  136   128    43 1
  137   129    43 1
  138   130    43 1
  139   131    39 1
  140   132    32 1
  141   133    31 1
  142   134    61 1
  143   135    56 1
  144   136    24 1
  145   137    24 1
  146   139   138 1
  147   140   139 1
  148   141   140 1
  149   142   140 1
  150   143   142 1
  151   144   138 1
  152   144   143 1
  153   145   144 1
  154   146   145 1
  155   147   146 1
  156   148   147 1
  157   149   148 1
  158   150   149 1
  159   151   150 1
  160   152   151 1
  161   153   152 1
  162   154   138 1
  163   155   138 1
  164   156   143 1
  165   157   147 1
  166   158   151 1
  167   160   159 1
  168   161   160 1
  169   162   161 1
  170   163   161 1
  171   164   163 1
  172   165   159 1
  173   165   164 1
  174   166   165 1
  175   167   166 1
  176   168   167 1
  177   169   168 1
  178   170   169 1
  179   171   170 1
  180   172   171 1
  181   173   172 1
  182   174   153 1
  183   174   173 1
  184   175   159 1
  185   176   159 1
  186   177   164 1
  187   178   168 1
  188   179   172 1
  189   180   179 1
  190   181   179 1
  191   182   179 1
  192   183   178 1
  193   184   178 1
  194   185   178 1
  195   186   177 1
  196   187   177 1
  197   188   177 1
  198   189   176 1
  199   190   176 1
  200   191   176 1
  201   192   175 1
  202   193   175 1
  203   194   175 1
  204   195   160 1
  205   196   160 1
  206   197   158 1
  207   198   158 1
  208   199   158 1
  209   200   157 1
  210   201   157 1
  211   202   157 1
  212   203   156 1
  213   204   156 1
  214   205   156 1
  215   206   155 1
  216   207   155 1
  217   208   155 1
  218   209   154 1
  219   210   154 1
  220   211   154 1
  221   212   141 1
  222   213   146 1
  223   214   145 1
  224   215   142 1
  225   216   142 1
  226   217   174 1
  227   218   173 1
  228   219   171 1
  229   220   170 1
  230   221   169 1
  231   222   140 1
  232   223   167 1
  233   224   166 1
  234   225   165 1
  235   226   163 1
  236   227   161 1
  237   228   139 1
  238   229   139 1
  239   230   153 1
  240   231   152 1
  241   232   150 1
  242   233   149 1
  243   234   148 1
  244   235   162 1
  245   65    153 1
  246   65    174 1
@<TRIPOS>SUBSTRUCTURE
      1 CLA               1 ****               0 ****  **** 
      2 LUT             138 ****               0 ****  **** 
