@<TRIPOS>MOLECULE
Cpptraj generated mol2 file.
  235   246     2     0     0
SMALL
USER_CHARGES


@<TRIPOS>ATOM
      1 CAA        80.1907   59.2392   34.5845 a2         1 CLA     -0.055900
      2 CAB        79.4286   62.5526   43.5840 c8         1 CLA     -0.148500
      3 CAC        73.0025   57.8502   42.6885 a2         1 CLA     -0.012600
      4 CAD        75.8812   56.4911   35.1536 ck         1 CLA      0.398800
      5 NA         78.8996   59.3575   37.7694 ns         1 CLA     -0.225500
      6 CBA        81.4466   59.1784   33.7217 a2         1 CLA     -0.135000
      7 CBB        80.5150   62.7682   44.3308 c0         1 CLA     -0.395200
      8 CBC        72.8817   56.3727   42.5041 a3         1 CLA     -0.037700
      9 CBD        77.3888   57.0584   34.9506 a1         1 CLA     -0.053900
     10 NB         78.7124   60.4971   40.4171 nm         1 CLA     -0.295700
     11 OBD        75.3526   55.7824   34.3359 o2         1 CLA     -0.494600
     12 CGA        81.9862   57.7425   33.3370 c4         1 CLA      0.827000
     13 CGD        78.4415   56.0462   34.5565 c4         1 CLA      0.655300
     14 ND         76.2199   58.2622   38.2464 nm         1 CLA     -0.291600
     15 CED        79.5807   54.0374   35.1330 a3         1 CLA      0.005400
     16 CHA        77.7039   57.8657   36.2895 cs         1 CLA     -0.123800
     17 CHB        80.6059   60.5948   38.9867 aa         1 CLA     -0.291900
     18 CHC        77.2630   60.5796   42.4970 aa         1 CLA     -0.090400
     19 CHD        74.2573   57.9647   39.7316 aa         1 CLA     -0.052000
     20 CMA        82.2447   58.3193   37.7019 a3         1 CLA     -0.230700
     21 CMB        81.7992   62.4352   41.1461 a3         1 CLA     -0.180800
     22 CMC        75.0199   59.6513   44.5731 a3         1 CLA     -0.134000
     23 CMD        73.1589   56.3768   37.4165 a3         1 CLA     -0.141100
     24 C1         82.9462   55.7107   34.0319 a2         1 CLA      0.023000
     25 C1A        78.9127   58.5331   36.6793 ac         1 CLA     -0.015100
     26 C1B        79.9280   61.0047   40.1498 cr         1 CLA      0.054700
     27 C1C        76.2020   59.7343   42.1734 cn         1 CLA     -0.005600
     28 C1D        74.9423   57.7338   38.5511 ap         1 CLA     -0.047300
     29 O1A        81.7879   57.1220   32.3155 o2         1 CLA     -0.610800
     30 O1D        79.3592   56.2354   33.7836 o2         1 CLA     -0.558200
     31 C2         83.7470   55.1499   35.2053 c8         1 CLA     -0.325100
     32 C2A        80.2159   58.5747   35.9846 a1         1 CLA      0.098600
     33 C2B        80.4478   61.7406   41.2041 cb         1 CLA      0.088500
     34 C2C        75.0690   59.3338   43.0760 cb         1 CLA      0.053700
     35 C2D        74.5156   56.9946   37.4026 cb         1 CLA      0.058900
     36 O2A        82.6611   57.1459   34.3963 o1         1 CLA     -0.437200
     37 O2D        78.4222   54.9100   35.3682 o1         1 CLA     -0.357600
     38 C3         85.1175   55.0084   35.2131 c5         1 CLA      0.031200
     39 C3A        81.2261   59.2092   36.9891 a1         1 CLA      0.166800
     40 C3B        79.4771   61.7323   42.2698 cb         1 CLA      0.035000
     41 C3C        74.2856   58.5233   42.2554 cb         1 CLA     -0.089900
     42 C3D        75.5249   56.9644   36.4688 cb         1 CLA     -0.035900
     43 C4         85.9738   53.9563   34.7234 a3         1 CLA     -0.053300
     44 C4A        80.1646   59.8187   37.9503 ac         1 CLA      0.001800
     45 C4B        78.3757   60.9687   41.7212 cn         1 CLA     -0.020900
     46 C4C        74.8544   58.5166   40.9083 cr         1 CLA     -0.044400
     47 C4D        76.5434   57.7716   37.0245 c6         1 CLA     -0.046000
     48 C5         85.8151   56.0320   35.9977 a2         1 CLA     -0.070400
     49 C6         85.5319   55.8289   37.5550 a2         1 CLA      0.043900
     50 C7         86.4129   56.8372   38.4310 a2         1 CLA     -0.150000
     51 C8         86.5363   56.7875   40.0253 a1         1 CLA      0.064200
     52 C9         85.1877   56.9823   40.6635 a3         1 CLA     -0.259300
     53 C10        87.6080   57.7500   40.5515 a2         1 CLA     -0.071900
     54 C11        87.6544   58.3280   42.0497 a2         1 CLA      0.014500
     55 C12        87.9562   57.1987   43.0065 a2         1 CLA     -0.112100
     56 C13        88.0353   57.5761   44.6031 a1         1 CLA      0.089200
     57 C14        88.6606   56.4853   45.5195 a3         1 CLA     -0.239100
     58 C15        86.6452   58.1961   45.1213 a2         1 CLA     -0.102200
     59 C16        86.4408   58.3398   46.6336 a2         1 CLA      0.023900
     60 C17        85.2466   59.3190   46.8800 a2         1 CLA     -0.105700
     61 C18        84.8266   59.4329   48.4213 a1         1 CLA      0.206800
     62 C19        83.7774   60.5475   48.6723 a3         1 CLA     -0.280100
     63 C20        84.3054   58.0502   49.0312 a3         1 CLA     -0.280100
     64 NC         76.0482   59.1968   40.9418 nx         1 CLA     -0.309200
     65 MG         77.4615   59.4341   39.2510 mg         1 CLA      0.895000
     66 HMD3       72.4067   57.1809   37.0907 dc         1 CLA      0.064300
     67 HMD2       72.9295   55.5302   36.7558 dc         1 CLA      0.064300
     68 HMD1       73.0091   56.0841   38.4053 dc         1 CLA      0.064300
     69 HMC3       74.4016   58.8334   44.9241 dc         1 CLA      0.052100
     70 HMC2       76.0788   59.6375   45.0166 dc         1 CLA      0.052100
     71 HMC1       74.4651   60.5761   44.8429 dc         1 CLA      0.052100
     72 HMB3       81.5637   63.4373   41.6463 dc         1 CLA      0.063600
     73 HMB2       82.4762   61.9524   41.9164 dc         1 CLA      0.063600
     74 HMB1       82.1010   62.5546   40.0865 dc         1 CLA      0.063600
     75 HMA3       82.9464   57.7905   37.0259 dc         1 CLA      0.058300
     76 HMA2       82.7885   59.0416   38.4326 dc         1 CLA      0.058300
     77 HMA1       81.8400   57.6874   38.4918 dc         1 CLA      0.058300
     78 HED3       79.4053   53.0909   35.7207 dc         1 CLA      0.079300
     79 HED2       79.7156   53.8099   34.0676 dc         1 CLA      0.079300
     80 HED1       80.5108   54.4669   35.5643 dc         1 CLA      0.079300
     81 HBC3       72.1099   55.9304   43.1300 dc         1 CLA      0.016300
     82 HBC2       72.7848   56.1014   41.4757 dc         1 CLA      0.016300
     83 HBC1       73.7872   55.9211   42.8501 dc         1 CLA      0.016300
     84 HBB2       80.4463   63.2515   45.3526 da         1 CLA      0.183000
     85 HBB1       81.5177   62.2770   44.0994 da         1 CLA      0.183000
     86 HBA2       81.2507   59.5638   32.7289 dc         1 CLA      0.029400
     87 HBA1       82.3285   59.6774   34.1267 dc         1 CLA      0.029400
     88 HAC2       72.8696   58.0748   43.7368 dc         1 CLA      0.029300
     89 HAC1       72.2111   58.3536   42.0944 dc         1 CLA      0.029300
     90 HAA2       79.4217   58.6402   34.0368 dc         1 CLA      0.028700
     91 HAA1       79.8503   60.2522   34.7162 dc         1 CLA      0.028700
     92 H203       84.2148   58.1904   50.0636 dc         1 CLA      0.065600
     93 H202       83.3195   57.7799   48.5654 dc         1 CLA      0.065600
     94 H201       85.0041   57.2494   48.9146 dc         1 CLA      0.065600
     95 H193       84.1756   61.3760   48.1072 dc         1 CLA      0.065600
     96 H192       82.7780   60.2970   48.3508 dc         1 CLA      0.065600
     97 H191       83.8502   60.8163   49.7722 dc         1 CLA      0.065600
     98 H172       85.5178   60.2740   46.4772 dc         1 CLA      0.027600
     99 H171       84.3948   58.9004   46.3603 dc         1 CLA      0.027600
    100 H162       86.2126   57.3824   47.0158 dc         1 CLA      0.002900
    101 H161       87.2804   58.8200   47.0736 dc         1 CLA      0.002900
    102 H152       86.5528   59.2795   44.7882 dc         1 CLA      0.029100
    103 H151       85.8770   57.6351   44.5572 dc         1 CLA      0.029100
    104 H143       89.6581   56.0235   45.1289 dc         1 CLA      0.063600
    105 H142       88.8154   56.9549   46.4903 dc         1 CLA      0.063600
    106 H141       88.0047   55.6478   45.7271 dc         1 CLA      0.063600
    107 H122       87.2957   56.3221   42.9508 dc         1 CLA      0.032500
    108 H121       89.0005   56.8925   42.7684 dc         1 CLA      0.032500
    109 H112       88.2522   59.1944   42.1331 dc         1 CLA      0.006600
    110 H111       86.6381   58.6258   42.2577 dc         1 CLA      0.006600
    111 H102       88.5366   57.1478   40.4103 dc         1 CLA      0.024100
    112 H101       87.6462   58.6484   40.0231 dc         1 CLA      0.024100
    113 HHD        73.2895   57.4323   40.0059 da         1 CLA      0.174300
    114 HHC        77.2985   61.0113   43.5440 da         1 CLA      0.136800
    115 HHB        81.6443   60.8607   38.8972 da         1 CLA      0.138300
    116 HBD        77.3206   57.7939   34.2073 dc         1 CLA      0.107700
    117 HAB        78.4763   62.8415   43.9750 da         1 CLA      0.155200
    118 H93        84.4304   56.4692   40.1251 dc         1 CLA      0.069500
    119 H92        85.2087   56.4979   41.6810 dc         1 CLA      0.069500
    120 H91        85.0060   58.0692   40.6297 dc         1 CLA      0.069500
    121 H8         86.9515   55.8473   40.2052 dc         1 CLA      0.029300
    122 H72        87.4254   56.8683   38.0380 dc         1 CLA      0.044400
    123 H71        86.0287   57.7972   38.2500 dc         1 CLA      0.044400
    124 H62        84.4579   56.0743   37.7536 dc         1 CLA      0.015600
    125 H61        85.7117   54.8471   37.8608 dc         1 CLA      0.015600
    126 H52        86.8417   56.2827   35.7351 dc         1 CLA      0.033200
    127 H51        85.3134   56.9453   35.8362 dc         1 CLA      0.033200
    128 H43        86.8491   54.2821   34.2389 dc         1 CLA      0.037000
    129 H42        86.2448   53.3068   35.5705 dc         1 CLA      0.037000
    130 H41        85.3813   53.3571   34.1194 dc         1 CLA      0.037000
    131 H3A        81.7734   59.9725   36.4832 dc         1 CLA      0.041100
    132 H2A        80.4318   57.5062   35.8597 dc         1 CLA      0.083100
    133 H2         83.1760   54.6243   36.0215 da         1 CLA      0.180900
    134 H18        85.7341   59.6317   48.9799 dc         1 CLA     -0.003900
    135 H13        88.7952   58.3467   44.5640 dc         1 CLA      0.019700
    136 H12        81.9896   55.1004   33.9399 dc         1 CLA      0.120400
    137 H11        83.4727   55.5312   33.0711 dc         1 CLA      0.120400
    138 C1         68.7677   61.4963   50.2005 Z1         2 LUT      0.509236
    139 C2         68.8814   62.7510   51.0624 Z2         2 LUT     -0.434695
    140 C3         67.6648   63.6658   51.1095 Z3         2 LUT      0.437453
    141 O3         68.1864   64.9164   51.4263 S1         2 LUT     -0.547129
    142 C4         67.0061   63.7484   49.7262 Z4         2 LUT     -0.468603
    143 C5         67.7602   63.0448   48.5530 Z5         2 LUT      0.279246
    144 C6         68.5708   61.9335   48.7519 Z6         2 LUT     -0.305473
    145 C7         69.4918   61.3898   47.6753 Z7         2 LUT      0.069402
    146 C8         70.4663   62.0900   46.9786 Z8         2 LUT     -0.191631
    147 C9         71.1975   61.6743   45.7518 Z9         2 LUT      0.196698
    148 C10        72.0151   62.6574   45.1742 Y1         2 LUT     -0.208611
    149 C11        72.7410   62.6171   43.9543 Y2         2 LUT      0.030784
    150 C12        73.7329   63.5467   43.7798 Y3         2 LUT     -0.220316
    151 C13        74.6415   63.6019   42.6681 Y4         2 LUT      0.215937
    152 C14        75.8754   64.2308   42.8256 Y5         2 LUT     -0.185793
    153 C15        76.9556   64.4022   41.8686 Y6         2 LUT     -0.057835
    154 C16        67.4927   60.8499   50.8123 Y7         2 LUT     -0.405615
    155 C17        70.0073   60.5373   50.2537 Y7         2 LUT     -0.405615
    156 C18        67.5681   63.8170   47.2616 Y9         2 LUT     -0.369639
    157 C19        71.1663   60.1999   45.4410 W1         2 LUT     -0.333362
    158 C20        74.3466   62.8682   41.3890 W2         2 LUT     -0.323439
    159 C21        88.5975   65.3840   35.8772 Z1         2 LUT      0.406104
    160 C22        89.2177   64.8020   34.5880 Z2         2 LUT     -0.404965
    161 C23        89.0512   65.6732   33.3711 Z3         2 LUT      0.391255
    162 O23        89.6232   64.9837   32.2626 S1         2 LUT     -0.528210
    163 C24        87.6611   66.2419   33.2395 W6         2 LUT     -0.258361
    164 C25        86.7962   66.4106   34.2245 Z5         2 LUT      0.133546
    165 C26        87.0221   65.8092   35.6108 W8         2 LUT     -0.147008
    166 C27        86.3651   66.6879   36.7614 Z7         2 LUT      0.023843
    167 C28        85.1325   66.5494   37.2250 Z8         2 LUT     -0.216987
    168 C29        84.5958   66.9324   38.4676 Z9         2 LUT      0.206524
    169 C30        83.4038   66.3497   38.8645 Y1         2 LUT     -0.215556
    170 C31        82.6148   66.5918   40.0528 Y2         2 LUT      0.025142
    171 C32        81.3560   66.0784   40.1857 Y3         2 LUT     -0.212209
    172 C33        80.4072   66.0988   41.2666 Y4         2 LUT      0.240937
    173 C34        79.2710   65.2564   41.1734 Y5         2 LUT     -0.218862
    174 C35        78.1801   65.0197   42.0801 Y6         2 LUT     -0.023547
    175 C36        89.3811   66.7235   36.2123 Y7         2 LUT     -0.393485
    176 C37        88.8768   64.4017   37.0379 Y7         2 LUT     -0.393485
    177 C38        85.5137   67.2788   34.0664 Y9         2 LUT     -0.387526
    178 C39        85.2756   68.0059   39.2966 W1         2 LUT     -0.322618
    179 C40        81.0002   66.6070   42.5888 W2         2 LUT     -0.358472
    180 H403       80.9718   67.6733   42.5588 R7         2 LUT      0.097720
    181 H402       80.3489   66.3380   43.4150 R7         2 LUT      0.097720
    182 H401       81.9747   66.3111   42.7472 R7         2 LUT      0.097720
    183 H393       84.6967   68.4664   40.0424 R4         2 LUT      0.082505
    184 H392       86.2223   67.6890   39.7644 R4         2 LUT      0.082505
    185 H391       85.6185   68.8539   38.6287 R4         2 LUT      0.082505
    186 H383       85.5765   68.1452   34.7441 R1         2 LUT      0.104030
    187 H382       85.5362   67.7029   33.0747 R1         2 LUT      0.104030
    188 H381       84.6191   66.7136   34.2437 R1         2 LUT      0.104030
    189 H373       89.8869   64.3172   37.4065 T4         2 LUT      0.089537
    190 H372       88.3199   64.8450   37.8372 T4         2 LUT      0.089537
    191 H371       88.4312   63.3826   36.8759 T4         2 LUT      0.089537
    192 H363       90.4542   66.5033   36.3492 T4         2 LUT      0.089537
    193 H362       89.2762   67.5118   35.4382 T4         2 LUT      0.089537
    194 H361       89.2294   67.0395   37.2879 T4         2 LUT      0.089537
    195 H222       90.2503   64.6481   34.8067 U2         2 LUT      0.127376
    196 H221       88.6899   63.8305   34.2573 U2         2 LUT      0.127376
    197 H203       74.9053   61.9649   41.4554 R7         2 LUT      0.087068
    198 H202       73.2912   62.5994   41.1206 R7         2 LUT      0.087068
    199 H201       74.6569   63.3840   40.5425 R7         2 LUT      0.087068
    200 H193       72.1096   59.8314   44.9837 R4         2 LUT      0.089716
    201 H192       71.0454   59.5957   46.3314 R4         2 LUT      0.089716
    202 H191       70.4471   59.9964   44.6489 R4         2 LUT      0.089716
    203 H183       68.5573   64.3265   47.0269 R1         2 LUT      0.094572
    204 H182       67.4508   63.1341   46.4239 R1         2 LUT      0.094572
    205 H181       66.7762   64.4514   47.1362 R1         2 LUT      0.094572
    206 H173       70.8464   60.9386   49.8240 T4         2 LUT      0.093752
    207 H172       70.2877   60.2092   51.2940 T4         2 LUT      0.093752
    208 H171       69.7712   59.6112   49.7190 T4         2 LUT      0.093752
    209 H163       67.4736   59.7946   50.5035 T4         2 LUT      0.093752
    210 H162       67.3915   60.8468   51.9526 T4         2 LUT      0.093752
    211 H161       66.5537   61.2280   50.4056 T4         2 LUT      0.093752
    212 HO3        67.5153   65.3948   51.8932 Q1         2 LUT      0.300121
    213 H8         70.5869   63.1391   47.2949 U7         2 LUT      0.080784
    214 H7         69.2337   60.4113   47.3478 U6         2 LUT      0.042190
    215 H42        66.0099   63.3190   49.8751 U5         2 LUT      0.145166
    216 H41        66.9482   64.8061   49.4523 U5         2 LUT      0.145166
    217 H35        78.4650   65.5149   43.0222 T3         2 LUT      0.077919
    218 H34        79.1171   64.6744   40.2090 T2         2 LUT      0.073626
    219 H32        81.0437   65.3577   39.4297 T1         2 LUT      0.092510
    220 H31        82.9430   67.2655   40.7426 U9         2 LUT      0.070048
    221 H30        83.1883   65.5282   38.1974 U8         2 LUT      0.085442
    222 H3         67.0895   63.1549   51.8547 U3         2 LUT     -0.031596
    223 H28        84.5145   65.8225   36.7127 U7         2 LUT      0.084728
    224 H27        86.9709   67.4622   37.3490 U6         2 LUT      0.087291
    225 H26        86.4356   64.8638   35.6801 Q6         2 LUT      0.075325
    226 H24        87.5596   66.8399   32.3501 Q5         2 LUT      0.094482
    227 H23        89.7330   66.5570   33.5828 U3         2 LUT     -0.024869
    228 H22        69.1617   62.3634   52.0719 U2         2 LUT      0.127376
    229 H21        69.6488   63.3266   50.5866 U2         2 LUT      0.127376
    230 H15        76.8417   64.0694   40.8561 T3         2 LUT      0.093200
    231 H14        76.1427   64.6387   43.7969 T2         2 LUT      0.068865
    232 H12        73.9578   64.2127   44.6713 T1         2 LUT      0.095507
    233 H11        72.5824   61.8139   43.2136 U9         2 LUT      0.068930
    234 H10        71.8761   63.6019   45.6911 U8         2 LUT      0.083911
    235 H1         89.6867   65.5324   31.4720 Q1         2 LUT      0.297311
@<TRIPOS>BOND
    1     6     1 1
    2     7     2 1
    3     8     3 1
    4     9     4 1
    5    11     4 1
    6    12     6 1
    7    13     9 1
    8    16     9 1
    9    25     5 1
   10    25    16 1
   11    26    10 1
   12    26    17 1
   13    27    18 1
   14    28    14 1
   15    28    19 1
   16    29    12 1
   17    30    13 1
   18    31    24 1
   19    32     1 1
   20    32    25 1
   21    33    21 1
   22    33    26 1
   23    34    22 1
   24    34    27 1
   25    35    23 1
   26    35    28 1
   27    36    12 1
   28    36    24 1
   29    37    13 1
   30    37    15 1
   31    38    31 1
   32    39    20 1
   33    39    32 1
   34    40     2 1
   35    40    33 1
   36    41     3 1
   37    41    34 1
   38    42     4 1
   39    42    35 1
   40    43    38 1
   41    44     5 1
   42    44    17 1
   43    44    39 1
   44    45    10 1
   45    45    18 1
   46    45    40 1
   47    46    19 1
   48    46    41 1
   49    47    14 1
   50    47    16 1
   51    47    42 1
   52    48    38 1
   53    49    48 1
   54    50    49 1
   55    51    50 1
   56    52    51 1
   57    53    51 1
   58    54    53 1
   59    55    54 1
   60    56    55 1
   61    57    56 1
   62    58    56 1
   63    59    58 1
   64    60    59 1
   65    61    60 1
   66    62    61 1
   67    63    61 1
   68    64    27 1
   69    64    46 1
   70    65     5 1
   71    65    10 1
   72    65    64 1
   73    65    14 1
   74    66    23 1
   75    67    23 1
   76    68    23 1
   77    69    22 1
   78    70    22 1
   79    71    22 1
   80    72    21 1
   81    73    21 1
   82    74    21 1
   83    75    20 1
   84    76    20 1
   85    77    20 1
   86    78    15 1
   87    79    15 1
   88    80    15 1
   89    81     8 1
   90    82     8 1
   91    83     8 1
   92    84     7 1
   93    85     7 1
   94    86     6 1
   95    87     6 1
   96    88     3 1
   97    89     3 1
   98    90     1 1
   99    91     1 1
  100    92    63 1
  101    93    63 1
  102    94    63 1
  103    95    62 1
  104    96    62 1
  105    97    62 1
  106    98    60 1
  107    99    60 1
  108   100    59 1
  109   101    59 1
  110   102    58 1
  111   103    58 1
  112   104    57 1
  113   105    57 1
  114   106    57 1
  115   107    55 1
  116   108    55 1
  117   109    54 1
  118   110    54 1
  119   111    53 1
  120   112    53 1
  121   113    19 1
  122   114    18 1
  123   115    17 1
  124   116     9 1
  125   117     2 1
  126   118    52 1
  127   119    52 1
  128   120    52 1
  129   121    51 1
  130   122    50 1
  131   123    50 1
  132   124    49 1
  133   125    49 1
  134   126    48 1
  135   127    48 1
  136   128    43 1
  137   129    43 1
  138   130    43 1
  139   131    39 1
  140   132    32 1
  141   133    31 1
  142   134    61 1
  143   135    56 1
  144   136    24 1
  145   137    24 1
  146   139   138 1
  147   140   139 1
  148   141   140 1
  149   142   140 1
  150   143   142 1
  151   144   138 1
  152   144   143 1
  153   145   144 1
  154   146   145 1
  155   147   146 1
  156   148   147 1
  157   149   148 1
  158   150   149 1
  159   151   150 1
  160   152   151 1
  161   153   152 1
  162   154   138 1
  163   155   138 1
  164   156   143 1
  165   157   147 1
  166   158   151 1
  167   160   159 1
  168   161   160 1
  169   162   161 1
  170   163   161 1
  171   164   163 1
  172   165   159 1
  173   165   164 1
  174   166   165 1
  175   167   166 1
  176   168   167 1
  177   169   168 1
  178   170   169 1
  179   171   170 1
  180   172   171 1
  181   173   172 1
  182   174   153 1
  183   174   173 1
  184   175   159 1
  185   176   159 1
  186   177   164 1
  187   178   168 1
  188   179   172 1
  189   180   179 1
  190   181   179 1
  191   182   179 1
  192   183   178 1
  193   184   178 1
  194   185   178 1
  195   186   177 1
  196   187   177 1
  197   188   177 1
  198   189   176 1
  199   190   176 1
  200   191   176 1
  201   192   175 1
  202   193   175 1
  203   194   175 1
  204   195   160 1
  205   196   160 1
  206   197   158 1
  207   198   158 1
  208   199   158 1
  209   200   157 1
  210   201   157 1
  211   202   157 1
  212   203   156 1
  213   204   156 1
  214   205   156 1
  215   206   155 1
  216   207   155 1
  217   208   155 1
  218   209   154 1
  219   210   154 1
  220   211   154 1
  221   212   141 1
  222   213   146 1
  223   214   145 1
  224   215   142 1
  225   216   142 1
  226   217   174 1
  227   218   173 1
  228   219   171 1
  229   220   170 1
  230   221   169 1
  231   222   140 1
  232   223   167 1
  233   224   166 1
  234   225   165 1
  235   226   163 1
  236   227   161 1
  237   228   139 1
  238   229   139 1
  239   230   153 1
  240   231   152 1
  241   232   150 1
  242   233   149 1
  243   234   148 1
  244   235   162 1
  245   65    153 1
  246   65    174 1
@<TRIPOS>SUBSTRUCTURE
      1 CLA               1 ****               0 ****  **** 
      2 LUT             138 ****               0 ****  **** 
