@<TRIPOS>MOLECULE
Cpptraj generated mol2 file.
  235   246     2     0     0
SMALL
USER_CHARGES


@<TRIPOS>ATOM
      1 CAA        79.7407   57.4359   34.7323 a2         1 CLA     -0.055900
      2 CAB        80.0290   61.8441   43.6004 c8         1 CLA     -0.148500
      3 CAC        72.9313   58.2844   43.4847 a2         1 CLA     -0.012600
      4 CAD        75.5770   55.0526   36.2717 ck         1 CLA      0.398800
      5 NA         78.7587   58.2591   38.1290 ns         1 CLA     -0.225500
      6 CBA        81.0576   57.3609   33.9506 a2         1 CLA     -0.135000
      7 CBB        81.1056   61.5294   44.3457 c0         1 CLA     -0.395200
      8 CBC        72.9431   56.8873   44.0882 a3         1 CLA     -0.037700
      9 CBD        77.0222   55.4687   35.9806 a1         1 CLA     -0.053900
     10 NB         78.7381   59.9156   40.6309 nm         1 CLA     -0.295700
     11 OBD        74.9821   54.2018   35.6700 o2         1 CLA     -0.494600
     12 CGA        81.5075   55.9503   33.6731 c4         1 CLA      0.827000
     13 CGD        77.9161   54.2974   36.1199 c4         1 CLA      0.655300
     14 ND         75.9153   57.4394   38.8219 nm         1 CLA     -0.291600
     15 CED        78.2046   52.1226   37.2269 a3         1 CLA      0.005400
     16 CHA        77.3679   56.6536   36.9413 cs         1 CLA     -0.123800
     17 CHB        80.5278   59.7149   39.0513 aa         1 CLA     -0.291900
     18 CHC        77.4516   60.3931   42.7162 aa         1 CLA     -0.090400
     19 CHD        74.2517   57.4983   40.5634 aa         1 CLA     -0.052000
     20 CMA        82.1245   57.5569   37.5176 a3         1 CLA     -0.230700
     21 CMB        81.9720   61.8763   40.9140 a3         1 CLA     -0.180800
     22 CMC        75.0382   60.2744   44.8338 a3         1 CLA     -0.134000
     23 CMD        72.8645   55.3700   38.5696 a3         1 CLA     -0.141100
     24 C1         82.5671   54.0694   34.7230 a2         1 CLA      0.023000
     25 C1A        78.6046   57.3801   37.1132 ac         1 CLA     -0.015100
     26 C1B        80.0088   60.2387   40.2319 cr         1 CLA      0.054700
     27 C1C        76.2925   59.6902   42.4918 cn         1 CLA     -0.005600
     28 C1D        74.7166   57.0428   39.3044 ap         1 CLA     -0.047300
     29 O1A        81.0705   55.2089   32.8179 o2         1 CLA     -0.610800
     30 O1D        79.0286   54.1864   35.5761 o2         1 CLA     -0.558200
     31 C2         83.4070   53.8505   35.9801 c8         1 CLA     -0.325100
     32 C2A        79.8899   57.1985   36.2813 a1         1 CLA      0.098600
     33 C2B        80.6985   61.1227   41.1950 cb         1 CLA      0.088500
     34 C2C        75.1329   59.6793   43.4355 cb         1 CLA      0.053700
     35 C2D        74.1454   56.0328   38.4259 cb         1 CLA      0.058900
     36 O2A        82.3076   55.5210   34.7381 o1         1 CLA     -0.437200
     37 O2D        77.4463   53.3530   36.9993 o1         1 CLA     -0.357600
     38 C3         84.7142   53.3773   36.0401 c5         1 CLA      0.031200
     39 C3A        80.8409   58.2145   37.0317 a1         1 CLA      0.166800
     40 C3B        79.8452   61.1924   42.2763 cb         1 CLA      0.035000
     41 C3C        74.2383   58.7256   42.8240 cb         1 CLA     -0.089900
     42 C3D        75.1742   55.8207   37.4394 cb         1 CLA     -0.035900
     43 C4         85.0815   51.8795   36.1435 a3         1 CLA     -0.053300
     44 C4A        79.9747   58.7573   38.1708 ac         1 CLA      0.001800
     45 C4B        78.5910   60.4860   41.9245 cn         1 CLA     -0.020900
     46 C4C        74.7639   58.4046   41.4852 cr         1 CLA     -0.044400
     47 C4D        76.2234   56.7802   37.7211 c6         1 CLA     -0.046000
     48 C5         85.7342   54.4790   36.3001 a2         1 CLA     -0.070400
     49 C6         86.2340   54.5302   37.7530 a2         1 CLA      0.043900
     50 C7         87.2054   55.6343   38.0512 a2         1 CLA     -0.150000
     51 C8         87.5262   55.8027   39.5385 a1         1 CLA      0.064200
     52 C9         86.3430   56.6117   40.2583 a3         1 CLA     -0.259300
     53 C10        88.9696   56.4889   39.6630 a2         1 CLA     -0.071900
     54 C11        89.5050   56.8671   41.0335 a2         1 CLA      0.014500
     55 C12        89.4292   55.7578   42.0619 a2         1 CLA     -0.112100
     56 C13        89.8944   56.1067   43.4952 a1         1 CLA      0.089200
     57 C14        89.6066   54.8233   44.2273 a3         1 CLA     -0.239100
     58 C15        89.3681   57.4786   44.0821 a2         1 CLA     -0.102200
     59 C16        87.9260   57.7357   44.3408 a2         1 CLA      0.023900
     60 C17        87.5400   59.0791   44.9752 a2         1 CLA     -0.105700
     61 C18        85.9874   59.4183   45.1705 a1         1 CLA      0.206800
     62 C19        85.1556   59.2422   43.8869 a3         1 CLA     -0.280100
     63 C20        85.3383   58.5777   46.3808 a3         1 CLA     -0.280100
     64 NC         75.9545   58.9792   41.3060 nx         1 CLA     -0.309200
     65 MG         77.2348   58.7485   39.6948 mg         1 CLA      0.895000
     66 HMD3       72.0165   55.9174   38.1678 dc         1 CLA      0.064300
     67 HMD2       72.7355   54.3624   38.0771 dc         1 CLA      0.064300
     68 HMD1       72.6409   55.1757   39.6189 dc         1 CLA      0.064300
     69 HMC3       74.2887   61.0061   44.9881 dc         1 CLA      0.052100
     70 HMC2       74.7523   59.4710   45.4888 dc         1 CLA      0.052100
     71 HMC1       75.9130   60.7193   45.1971 dc         1 CLA      0.052100
     72 HMB3       82.0656   62.7422   41.4900 dc         1 CLA      0.063600
     73 HMB2       82.8858   61.3361   41.1272 dc         1 CLA      0.063600
     74 HMB1       82.0703   62.0736   39.8310 dc         1 CLA      0.063600
     75 HMA3       82.0113   56.6560   38.1197 dc         1 CLA      0.058300
     76 HMA2       82.8807   57.3729   36.7552 dc         1 CLA      0.058300
     77 HMA1       82.5884   58.1709   38.2472 dc         1 CLA      0.058300
     78 HED3       78.3223   51.4091   36.4251 dc         1 CLA      0.079300
     79 HED2       79.1914   52.3142   37.6771 dc         1 CLA      0.079300
     80 HED1       77.5195   51.6302   37.9020 dc         1 CLA      0.079300
     81 HBC3       73.3492   56.1555   43.3846 dc         1 CLA      0.016300
     82 HBC2       73.6441   56.9149   44.9629 dc         1 CLA      0.016300
     83 HBC1       71.9410   56.6017   44.2169 dc         1 CLA      0.016300
     84 HBB2       81.3123   62.0226   45.3569 da         1 CLA      0.183000
     85 HBB1       81.8957   60.7882   44.0449 da         1 CLA      0.183000
     86 HBA2       80.9502   57.8120   33.0188 dc         1 CLA      0.029400
     87 HBA1       81.8202   57.9969   34.4010 dc         1 CLA      0.029400
     88 HAC2       72.7718   59.0060   44.3179 dc         1 CLA      0.029300
     89 HAC1       72.1212   58.2882   42.7087 dc         1 CLA      0.029300
     90 HAA2       79.0100   56.7437   34.2728 dc         1 CLA      0.028700
     91 HAA1       79.3384   58.4720   34.7216 dc         1 CLA      0.028700
     92 H203       85.3192   57.4776   46.2090 dc         1 CLA      0.065600
     93 H202       85.7299   58.7544   47.3762 dc         1 CLA      0.065600
     94 H201       84.2600   58.8209   46.4815 dc         1 CLA      0.065600
     95 H193       84.2024   59.7232   44.0654 dc         1 CLA      0.065600
     96 H192       85.5820   59.7265   43.0394 dc         1 CLA      0.065600
     97 H191       84.9617   58.2511   43.6663 dc         1 CLA      0.065600
     98 H172       88.1659   59.2097   45.8769 dc         1 CLA      0.027600
     99 H171       87.7777   59.8233   44.1981 dc         1 CLA      0.027600
    100 H162       87.3845   57.6821   43.3360 dc         1 CLA      0.002900
    101 H161       87.7219   56.9145   45.0342 dc         1 CLA      0.002900
    102 H152       89.7688   57.6050   45.0547 dc         1 CLA      0.029100
    103 H151       89.7122   58.2390   43.3527 dc         1 CLA      0.029100
    104 H143       90.1773   53.9910   43.7986 dc         1 CLA      0.063600
    105 H142       89.8076   54.8076   45.3328 dc         1 CLA      0.063600
    106 H141       88.5652   54.5013   44.0799 dc         1 CLA      0.063600
    107 H122       88.4208   55.4797   42.1097 dc         1 CLA      0.032500
    108 H121       89.9099   54.8954   41.6785 dc         1 CLA      0.032500
    109 H112       90.4742   57.2404   40.8748 dc         1 CLA      0.006600
    110 H111       88.8702   57.6832   41.4284 dc         1 CLA      0.006600
    111 H102       89.6996   55.7716   39.2658 dc         1 CLA      0.024100
    112 H101       88.9418   57.3713   39.0625 dc         1 CLA      0.024100
    113 HHD        73.2472   57.0752   40.9089 da         1 CLA      0.174300
    114 HHC        77.5591   60.7943   43.6894 da         1 CLA      0.136800
    115 HHB        81.4509   60.1961   38.8477 da         1 CLA      0.138300
    116 HBD        77.1052   55.8094   34.9090 dc         1 CLA      0.107700
    117 HAB        79.3238   62.5642   43.9956 da         1 CLA      0.155200
    118 H93        85.3585   56.4796   39.7687 dc         1 CLA      0.069500
    119 H92        86.2082   56.3225   41.2662 dc         1 CLA      0.069500
    120 H91        86.5727   57.7030   40.2181 dc         1 CLA      0.069500
    121 H8         87.6281   54.8643   39.9214 dc         1 CLA      0.029300
    122 H72        88.0660   55.4829   37.4210 dc         1 CLA      0.044400
    123 H71        86.7674   56.6434   37.7104 dc         1 CLA      0.044400
    124 H62        85.2813   54.5882   38.3207 dc         1 CLA      0.015600
    125 H61        86.8191   53.6668   38.0237 dc         1 CLA      0.015600
    126 H52        86.5479   54.3337   35.6166 dc         1 CLA      0.033200
    127 H51        85.2848   55.4853   36.1845 dc         1 CLA      0.033200
    128 H43        85.6723   51.7378   37.0842 dc         1 CLA      0.037000
    129 H42        84.2090   51.2691   36.1739 dc         1 CLA      0.037000
    130 H41        85.7585   51.6509   35.2879 dc         1 CLA      0.037000
    131 H3A        81.0972   59.1067   36.4140 dc         1 CLA      0.041100
    132 H2A        80.3740   56.2309   36.4739 dc         1 CLA      0.083100
    133 H2         82.8336   53.9414   36.8822 da         1 CLA      0.180900
    134 H18        85.9495   60.4734   45.5118 dc         1 CLA     -0.003900
    135 H13        91.0016   56.2401   43.5900 dc         1 CLA      0.019700
    136 H12        81.6524   53.5071   34.8188 dc         1 CLA      0.120400
    137 H11        82.9802   53.8188   33.7531 dc         1 CLA      0.120400
    138 C1         69.1622   61.5294   50.3912 Z1         2 LUT      0.509236
    139 C2         67.7325   61.4064   51.0081 Z2         2 LUT     -0.434695
    140 C3         67.0119   62.7507   51.4240 Z3         2 LUT      0.437453
    141 O3         67.2402   63.1529   52.7876 S1         2 LUT     -0.547129
    142 C4         67.3899   63.8894   50.5052 Z4         2 LUT     -0.468603
    143 C5         68.3459   63.7031   49.3438 Z5         2 LUT      0.279246
    144 C6         69.1918   62.6576   49.2922 Z6         2 LUT     -0.305473
    145 C7         69.7192   62.3054   47.9569 Z7         2 LUT      0.069402
    146 C8         70.8181   62.9257   47.3731 Z8         2 LUT     -0.191631
    147 C9         71.3672   62.5445   46.0955 Z9         2 LUT      0.196698
    148 C10        72.4965   63.2350   45.6172 Y1         2 LUT     -0.208611
    149 C11        73.0868   63.1102   44.3380 Y2         2 LUT      0.030784
    150 C12        74.2427   63.6915   44.0124 Y3         2 LUT     -0.220316
    151 C13        75.0694   63.5660   42.8033 Y4         2 LUT      0.215937
    152 C14        76.3155   64.1097   42.8508 Y5         2 LUT     -0.185793
    153 C15        77.4292   64.1202   41.8733 Y6         2 LUT     -0.057835
    154 C16        69.6762   60.1612   49.8778 Y7         2 LUT     -0.405615
    155 C17        70.0396   61.9660   51.6028 Y7         2 LUT     -0.405615
    156 C18        68.0219   64.6182   48.1906 Y9         2 LUT     -0.369639
    157 C19        70.7330   61.3971   45.2952 W1         2 LUT     -0.333362
    158 C20        74.4398   62.9049   41.6856 W2         2 LUT     -0.323439
    159 C21        89.0623   65.1867   35.8230 Z1         2 LUT      0.406104
    160 C22        89.6533   64.6114   34.5949 Z2         2 LUT     -0.404965
    161 C23        89.5392   65.3347   33.3742 Z3         2 LUT      0.391255
    162 O23        90.3319   64.7566   32.3612 S1         2 LUT     -0.528210
    163 C24        88.1667   65.9044   33.0919 W6         2 LUT     -0.258361
    164 C25        87.1905   65.9475   34.0260 Z5         2 LUT      0.133546
    165 C26        87.5151   65.5012   35.5029 W8         2 LUT     -0.147008
    166 C27        86.6881   66.2800   36.6213 Z7         2 LUT      0.023843
    167 C28        85.3547   66.2238   36.8729 Z8         2 LUT     -0.216987
    168 C29        84.6789   66.6918   38.0687 Z9         2 LUT      0.206524
    169 C30        83.5107   66.0782   38.4984 Y1         2 LUT     -0.215556
    170 C31        82.8119   66.1342   39.8030 Y2         2 LUT      0.025142
    171 C32        81.6310   65.5034   40.0983 Y3         2 LUT     -0.212209
    172 C33        80.8855   65.4453   41.3690 Y4         2 LUT      0.240937
    173 C34        79.6444   64.8694   41.2807 Y5         2 LUT     -0.218862
    174 C35        78.5883   64.7373   42.2070 Y6         2 LUT     -0.023547
    175 C36        89.8095   66.4582   36.2059 Y7         2 LUT     -0.393485
    176 C37        89.3265   64.1314   36.9287 Y7         2 LUT     -0.393485
    177 C38        85.9211   66.7550   33.6624 Y9         2 LUT     -0.387526
    178 C39        85.3550   67.7678   38.8218 W1         2 LUT     -0.322618
    179 C40        81.4002   66.3387   42.4572 W2         2 LUT     -0.358472
    180 H403       80.6999   66.3327   43.2749 R7         2 LUT      0.097720
    181 H402       82.4517   66.0929   42.8764 R7         2 LUT      0.097720
    182 H401       81.4631   67.2990   42.0592 R7         2 LUT      0.097720
    183 H393       85.9266   68.6080   38.3509 R4         2 LUT      0.082505
    184 H392       84.7566   68.2129   39.6579 R4         2 LUT      0.082505
    185 H391       86.1996   67.2794   39.2882 R4         2 LUT      0.082505
    186 H383       85.6348   67.4756   34.3945 R1         2 LUT      0.104030
    187 H382       86.0978   67.3499   32.7289 R1         2 LUT      0.104030
    188 H381       85.0565   66.0337   33.4641 R1         2 LUT      0.104030
    189 H373       90.3802   63.9203   37.1751 T4         2 LUT      0.089537
    190 H372       88.8177   64.3964   37.8710 T4         2 LUT      0.089537
    191 H371       88.8604   63.1608   36.6213 T4         2 LUT      0.089537
    192 H363       89.5137   66.8986   37.1671 T4         2 LUT      0.089537
    193 H362       90.9271   66.4321   36.2798 T4         2 LUT      0.089537
    194 H361       89.5328   67.2379   35.5296 T4         2 LUT      0.089537
    195 H222       90.6807   64.2390   34.6570 U2         2 LUT      0.127376
    196 H221       89.0267   63.7310   34.4960 U2         2 LUT      0.127376
    197 H203       74.0363   61.8663   41.8180 R7         2 LUT      0.087068
    198 H202       73.5435   63.4260   41.3244 R7         2 LUT      0.087068
    199 H201       75.0120   62.9572   40.7587 R7         2 LUT      0.087068
    200 H193       71.0035   60.4730   45.7579 R4         2 LUT      0.089716
    201 H192       69.6160   61.4679   45.2538 R4         2 LUT      0.089716
    202 H191       71.0737   61.2430   44.2846 R4         2 LUT      0.089716
    203 H183       67.1045   65.2585   48.3055 R1         2 LUT      0.094572
    204 H182       68.7714   65.4066   47.9850 R1         2 LUT      0.094572
    205 H181       67.8982   64.1091   47.3081 R1         2 LUT      0.094572
    206 H173       69.6198   62.8648   52.0823 T4         2 LUT      0.093752
    207 H172       70.2776   61.1370   52.2974 T4         2 LUT      0.093752
    208 H171       70.9980   62.3587   51.2148 T4         2 LUT      0.093752
    209 H163       70.7786   60.3178   49.5897 T4         2 LUT      0.093752
    210 H162       69.7121   59.3716   50.6358 T4         2 LUT      0.093752
    211 H161       69.1069   59.8582   49.0223 T4         2 LUT      0.093752
    212 HO3        67.0726   62.4461   53.4478 Q1         2 LUT      0.300121
    213 H8         71.0469   63.9334   47.7159 U7         2 LUT      0.080784
    214 H7         69.4449   61.4178   47.5151 U6         2 LUT      0.042190
    215 H42        66.4325   64.1750   49.9649 U5         2 LUT      0.145166
    216 H41        67.9041   64.6510   51.0012 U5         2 LUT      0.145166
    217 H35        78.6285   65.2645   43.1651 T3         2 LUT      0.077919
    218 H34        79.3341   64.6080   40.2403 T2         2 LUT      0.073626
    219 H32        81.1059   64.9446   39.2803 T1         2 LUT      0.092510
    220 H31        83.3513   66.7885   40.5170 U9         2 LUT      0.070048
    221 H30        83.1909   65.2348   37.8648 U8         2 LUT      0.085442
    222 H3         65.8838   62.6716   51.2988 U3         2 LUT     -0.031596
    223 H28        84.9016   65.3729   36.2795 U7         2 LUT      0.084728
    224 H27        87.2616   67.0080   37.1533 U6         2 LUT      0.087291
    225 H26        87.0302   64.4747   35.4425 Q6         2 LUT      0.075325
    226 H24        88.1262   66.4996   32.2087 Q5         2 LUT      0.094482
    227 H23        90.0924   66.2385   33.6199 U3         2 LUT     -0.024869
    228 H22        67.1164   60.8543   50.2387 U2         2 LUT      0.127376
    229 H21        67.6888   60.6877   51.8162 U2         2 LUT      0.127376
    230 H15        77.3491   63.5857   40.8989 T3         2 LUT      0.093200
    231 H14        76.5209   64.7113   43.7602 T2         2 LUT      0.068865
    232 H12        74.6586   64.2370   44.8745 T1         2 LUT      0.095507
    233 H11        72.8309   62.5040   43.4546 U9         2 LUT      0.068930
    234 H10        72.7817   63.9922   46.2887 U8         2 LUT      0.083911
    235 H1         89.7058   64.5905   31.6277 Q1         2 LUT      0.297311
@<TRIPOS>BOND
    1     6     1 1
    2     7     2 1
    3     8     3 1
    4     9     4 1
    5    11     4 1
    6    12     6 1
    7    13     9 1
    8    16     9 1
    9    25     5 1
   10    25    16 1
   11    26    10 1
   12    26    17 1
   13    27    18 1
   14    28    14 1
   15    28    19 1
   16    29    12 1
   17    30    13 1
   18    31    24 1
   19    32     1 1
   20    32    25 1
   21    33    21 1
   22    33    26 1
   23    34    22 1
   24    34    27 1
   25    35    23 1
   26    35    28 1
   27    36    12 1
   28    36    24 1
   29    37    13 1
   30    37    15 1
   31    38    31 1
   32    39    20 1
   33    39    32 1
   34    40     2 1
   35    40    33 1
   36    41     3 1
   37    41    34 1
   38    42     4 1
   39    42    35 1
   40    43    38 1
   41    44     5 1
   42    44    17 1
   43    44    39 1
   44    45    10 1
   45    45    18 1
   46    45    40 1
   47    46    19 1
   48    46    41 1
   49    47    14 1
   50    47    16 1
   51    47    42 1
   52    48    38 1
   53    49    48 1
   54    50    49 1
   55    51    50 1
   56    52    51 1
   57    53    51 1
   58    54    53 1
   59    55    54 1
   60    56    55 1
   61    57    56 1
   62    58    56 1
   63    59    58 1
   64    60    59 1
   65    61    60 1
   66    62    61 1
   67    63    61 1
   68    64    27 1
   69    64    46 1
   70    65     5 1
   71    65    10 1
   72    65    64 1
   73    65    14 1
   74    66    23 1
   75    67    23 1
   76    68    23 1
   77    69    22 1
   78    70    22 1
   79    71    22 1
   80    72    21 1
   81    73    21 1
   82    74    21 1
   83    75    20 1
   84    76    20 1
   85    77    20 1
   86    78    15 1
   87    79    15 1
   88    80    15 1
   89    81     8 1
   90    82     8 1
   91    83     8 1
   92    84     7 1
   93    85     7 1
   94    86     6 1
   95    87     6 1
   96    88     3 1
   97    89     3 1
   98    90     1 1
   99    91     1 1
  100    92    63 1
  101    93    63 1
  102    94    63 1
  103    95    62 1
  104    96    62 1
  105    97    62 1
  106    98    60 1
  107    99    60 1
  108   100    59 1
  109   101    59 1
  110   102    58 1
  111   103    58 1
  112   104    57 1
  113   105    57 1
  114   106    57 1
  115   107    55 1
  116   108    55 1
  117   109    54 1
  118   110    54 1
  119   111    53 1
  120   112    53 1
  121   113    19 1
  122   114    18 1
  123   115    17 1
  124   116     9 1
  125   117     2 1
  126   118    52 1
  127   119    52 1
  128   120    52 1
  129   121    51 1
  130   122    50 1
  131   123    50 1
  132   124    49 1
  133   125    49 1
  134   126    48 1
  135   127    48 1
  136   128    43 1
  137   129    43 1
  138   130    43 1
  139   131    39 1
  140   132    32 1
  141   133    31 1
  142   134    61 1
  143   135    56 1
  144   136    24 1
  145   137    24 1
  146   139   138 1
  147   140   139 1
  148   141   140 1
  149   142   140 1
  150   143   142 1
  151   144   138 1
  152   144   143 1
  153   145   144 1
  154   146   145 1
  155   147   146 1
  156   148   147 1
  157   149   148 1
  158   150   149 1
  159   151   150 1
  160   152   151 1
  161   153   152 1
  162   154   138 1
  163   155   138 1
  164   156   143 1
  165   157   147 1
  166   158   151 1
  167   160   159 1
  168   161   160 1
  169   162   161 1
  170   163   161 1
  171   164   163 1
  172   165   159 1
  173   165   164 1
  174   166   165 1
  175   167   166 1
  176   168   167 1
  177   169   168 1
  178   170   169 1
  179   171   170 1
  180   172   171 1
  181   173   172 1
  182   174   153 1
  183   174   173 1
  184   175   159 1
  185   176   159 1
  186   177   164 1
  187   178   168 1
  188   179   172 1
  189   180   179 1
  190   181   179 1
  191   182   179 1
  192   183   178 1
  193   184   178 1
  194   185   178 1
  195   186   177 1
  196   187   177 1
  197   188   177 1
  198   189   176 1
  199   190   176 1
  200   191   176 1
  201   192   175 1
  202   193   175 1
  203   194   175 1
  204   195   160 1
  205   196   160 1
  206   197   158 1
  207   198   158 1
  208   199   158 1
  209   200   157 1
  210   201   157 1
  211   202   157 1
  212   203   156 1
  213   204   156 1
  214   205   156 1
  215   206   155 1
  216   207   155 1
  217   208   155 1
  218   209   154 1
  219   210   154 1
  220   211   154 1
  221   212   141 1
  222   213   146 1
  223   214   145 1
  224   215   142 1
  225   216   142 1
  226   217   174 1
  227   218   173 1
  228   219   171 1
  229   220   170 1
  230   221   169 1
  231   222   140 1
  232   223   167 1
  233   224   166 1
  234   225   165 1
  235   226   163 1
  236   227   161 1
  237   228   139 1
  238   229   139 1
  239   230   153 1
  240   231   152 1
  241   232   150 1
  242   233   149 1
  243   234   148 1
  244   235   162 1
  245   65    153 1
  246   65    174 1
@<TRIPOS>SUBSTRUCTURE
      1 CLA               1 ****               0 ****  **** 
      2 LUT             138 ****               0 ****  **** 
