@<TRIPOS>MOLECULE
Cpptraj generated mol2 file.
  235   246     2     0     0
SMALL
USER_CHARGES


@<TRIPOS>ATOM
      1 CAA        78.3193   58.7476   33.3211 a2         1 CLA     -0.055900
      2 CAB        78.7637   62.1278   42.4450 c8         1 CLA     -0.148500
      3 CAC        71.7039   58.3174   42.0771 a2         1 CLA     -0.012600
      4 CAD        74.3124   55.9244   34.5726 ck         1 CLA      0.398800
      5 NA         77.3514   59.1319   36.6601 ns         1 CLA     -0.225500
      6 CBA        79.5708   58.6451   32.4336 a2         1 CLA     -0.135000
      7 CBB        78.2301   61.6444   43.5833 c0         1 CLA     -0.395200
      8 CBC        71.9231   56.9680   42.6806 a3         1 CLA     -0.037700
      9 CBD        75.7854   56.5080   34.2120 a1         1 CLA     -0.053900
     10 NB         77.3837   60.4967   39.3502 nm         1 CLA     -0.295700
     11 OBD        73.8270   54.9780   33.9825 o2         1 CLA     -0.494600
     12 CGA        80.0478   57.1771   32.2024 c4         1 CLA      0.827000
     13 CGD        76.8036   55.4195   34.0218 c4         1 CLA      0.655300
     14 ND         74.6868   58.1616   37.3081 nm         1 CLA     -0.291600
     15 CED        77.5958   53.4180   35.0877 a3         1 CLA      0.005400
     16 CHA        76.0216   57.5285   35.3048 cs         1 CLA     -0.123800
     17 CHB        79.0790   60.6431   37.6296 aa         1 CLA     -0.291900
     18 CHC        76.1010   60.7498   41.4404 aa         1 CLA     -0.090400
     19 CHD        73.0516   57.8277   39.1769 aa         1 CLA     -0.052000
     20 CMA        80.5784   58.2444   36.3939 a3         1 CLA     -0.230700
     21 CMB        80.6946   61.9946   39.9750 a3         1 CLA     -0.180800
     22 CMC        73.7687   60.3960   43.3836 a3         1 CLA     -0.134000
     23 CMD        71.5539   56.1251   36.8535 a3         1 CLA     -0.141100
     24 C1         81.0580   55.2161   33.1897 a2         1 CLA      0.023000
     25 C1A        77.1943   58.3278   35.5441 ac         1 CLA     -0.015100
     26 C1B        78.6493   60.9252   38.8914 cr         1 CLA      0.054700
     27 C1C        74.9686   59.9998   41.2175 cn         1 CLA     -0.005600
     28 C1D        73.5042   57.5812   37.8375 ap         1 CLA     -0.047300
     29 O1A        79.6158   56.5048   31.2731 o2         1 CLA     -0.610800
     30 O1D        77.4471   55.2688   32.9836 o2         1 CLA     -0.558200
     31 C2         81.8582   55.0479   34.4474 c8         1 CLA     -0.325100
     32 C2A        78.5407   58.2166   34.7373 a1         1 CLA      0.098600
     33 C2B        79.3025   61.5144   39.9796 cb         1 CLA      0.088500
     34 C2C        73.8278   59.7235   42.1207 cb         1 CLA      0.053700
     35 C2D        72.9522   56.7522   36.7887 cb         1 CLA      0.058900
     36 O2A        80.7807   56.6804   33.2376 o1         1 CLA     -0.437200
     37 O2D        76.8755   54.6292   35.1431 o1         1 CLA     -0.357600
     38 C3         82.2765   53.9067   35.0050 c5         1 CLA      0.031200
     39 C3A        79.4926   59.0780   35.6129 a1         1 CLA      0.166800
     40 C3B        78.4704   61.5661   41.1480 cb         1 CLA      0.035000
     41 C3C        72.9645   58.8589   41.4806 cb         1 CLA     -0.089900
     42 C3D        73.8652   56.6338   35.7552 cb         1 CLA     -0.035900
     43 C4         81.5236   53.1166   36.0860 a3         1 CLA     -0.053300
     44 C4A        78.5903   59.7358   36.6671 ac         1 CLA      0.001800
     45 C4B        77.2220   60.8851   40.6589 cn         1 CLA     -0.020900
     46 C4C        73.5467   58.6754   40.1667 cr         1 CLA     -0.044400
     47 C4D        74.9400   57.5527   36.1499 c6         1 CLA     -0.046000
     48 C5         83.6110   53.4757   34.6326 a2         1 CLA     -0.070400
     49 C6         84.7266   54.4007   35.1800 a2         1 CLA      0.043900
     50 C7         84.5654   54.7086   36.7121 a2         1 CLA     -0.150000
     51 C8         85.4723   55.8057   37.3668 a1         1 CLA      0.064200
     52 C9         86.9775   55.6423   37.3050 a3         1 CLA     -0.259300
     53 C10        85.0541   56.0891   38.8333 a2         1 CLA     -0.071900
     54 C11        83.5908   56.3775   39.0908 a2         1 CLA      0.014500
     55 C12        83.3184   56.9088   40.5372 a2         1 CLA     -0.112100
     56 C13        81.8396   57.1241   41.0426 a1         1 CLA      0.089200
     57 C14        80.9758   57.8587   39.9385 a3         1 CLA     -0.239100
     58 C15        81.8937   57.9264   42.3716 a2         1 CLA     -0.102200
     59 C16        82.7696   59.2066   42.5193 a2         1 CLA      0.023900
     60 C17        82.4101   59.8101   43.8530 a2         1 CLA     -0.105700
     61 C18        83.0253   61.2315   44.0903 a1         1 CLA      0.206800
     62 C19        82.5208   62.2130   43.0504 a3         1 CLA     -0.280100
     63 C20        82.7140   61.8647   45.4562 a3         1 CLA     -0.280100
     64 NC         74.7097   59.3701   40.0690 nx         1 CLA     -0.309200
     65 MG         76.0201   59.4879   38.2644 mg         1 CLA      0.895000
     66 HMD3       70.9048   56.8109   37.3898 dc         1 CLA      0.064300
     67 HMD2       71.1825   55.9589   35.8443 dc         1 CLA      0.064300
     68 HMD1       71.5769   55.1153   37.3555 dc         1 CLA      0.064300
     69 HMC3       73.7685   61.5086   43.3389 dc         1 CLA      0.052100
     70 HMC2       72.9787   60.0634   43.9878 dc         1 CLA      0.052100
     71 HMC1       74.6246   60.0676   43.8714 dc         1 CLA      0.052100
     72 HMB3       80.8307   62.8310   40.6006 dc         1 CLA      0.063600
     73 HMB2       81.3510   61.1905   40.2830 dc         1 CLA      0.063600
     74 HMB1       81.0484   62.3588   38.9638 dc         1 CLA      0.063600
     75 HMA3       80.1440   57.4218   36.8791 dc         1 CLA      0.058300
     76 HMA2       81.2862   57.7835   35.7274 dc         1 CLA      0.058300
     77 HMA1       81.1598   58.7556   37.0615 dc         1 CLA      0.058300
     78 HED3       78.6046   53.4898   35.4608 dc         1 CLA      0.079300
     79 HED2       77.0042   52.6410   35.6205 dc         1 CLA      0.079300
     80 HED1       77.6212   53.0298   34.0707 dc         1 CLA      0.079300
     81 HBC3       72.5751   56.9905   43.5908 dc         1 CLA      0.016300
     82 HBC2       70.9239   56.6345   42.9660 dc         1 CLA      0.016300
     83 HBC1       72.3263   56.2337   41.9451 dc         1 CLA      0.016300
     84 HBB2       78.4097   62.0903   44.5379 da         1 CLA      0.183000
     85 HBB1       77.6127   60.7803   43.6206 da         1 CLA      0.183000
     86 HBA2       79.3241   59.0815   31.4331 dc         1 CLA      0.029400
     87 HBA1       80.4068   59.2051   32.8754 dc         1 CLA      0.029400
     88 HAC2       71.1786   58.9355   42.8502 dc         1 CLA      0.029300
     89 HAC1       70.9924   58.0543   41.2923 dc         1 CLA      0.029300
     90 HAA2       77.4426   58.2327   32.7988 dc         1 CLA      0.028700
     91 HAA1       78.0870   59.8369   33.3826 dc         1 CLA      0.028700
     92 H203       83.2235   61.2588   46.1847 dc         1 CLA      0.065600
     93 H202       83.1967   62.7814   45.5736 dc         1 CLA      0.065600
     94 H201       81.6049   61.9373   45.6143 dc         1 CLA      0.065600
     95 H193       82.9046   63.2363   43.1461 dc         1 CLA      0.065600
     96 H192       82.7177   61.9449   42.0188 dc         1 CLA      0.065600
     97 H191       81.5046   62.2354   43.3506 dc         1 CLA      0.065600
     98 H172       81.3463   59.8830   44.0543 dc         1 CLA      0.027600
     99 H171       82.7702   59.1431   44.6400 dc         1 CLA      0.027600
    100 H162       83.8406   58.9535   42.4762 dc         1 CLA      0.002900
    101 H161       82.3712   59.9042   41.8186 dc         1 CLA      0.002900
    102 H152       80.8915   58.1511   42.5898 dc         1 CLA      0.029100
    103 H151       82.2539   57.2336   43.1526 dc         1 CLA      0.029100
    104 H143       81.5798   58.6352   39.4899 dc         1 CLA      0.063600
    105 H142       80.8471   57.0292   39.2607 dc         1 CLA      0.063600
    106 H141       80.0300   58.2530   40.2255 dc         1 CLA      0.063600
    107 H122       83.6056   56.2034   41.3224 dc         1 CLA      0.032500
    108 H121       83.9521   57.7418   40.6231 dc         1 CLA      0.032500
    109 H112       83.1812   57.1453   38.4971 dc         1 CLA      0.006600
    110 H111       82.9986   55.4824   39.0134 dc         1 CLA      0.006600
    111 H102       85.2279   55.1857   39.4751 dc         1 CLA      0.024100
    112 H101       85.6720   56.9431   39.1642 dc         1 CLA      0.024100
    113 HHD        71.9556   57.5026   39.3336 da         1 CLA      0.174300
    114 HHC        76.2226   61.3290   42.3526 da         1 CLA      0.136800
    115 HHB        80.0815   61.0880   37.5391 da         1 CLA      0.138300
    116 HBD        75.8268   56.9075   33.2839 dc         1 CLA      0.107700
    117 HAB        79.4168   62.9949   42.5512 da         1 CLA      0.155200
    118 H93        87.5407   56.2710   37.9995 dc         1 CLA      0.069500
    119 H92        87.3188   54.6615   37.6798 dc         1 CLA      0.069500
    120 H91        87.4060   55.6355   36.3160 dc         1 CLA      0.069500
    121 H8         85.3814   56.7210   36.7844 dc         1 CLA      0.029300
    122 H72        83.5852   55.1564   36.9417 dc         1 CLA      0.044400
    123 H71        84.6965   53.7387   37.2848 dc         1 CLA      0.044400
    124 H62        85.6778   53.8682   35.2417 dc         1 CLA      0.015600
    125 H61        84.8486   55.3713   34.6499 dc         1 CLA      0.015600
    126 H52        83.7323   52.4340   35.0674 dc         1 CLA      0.033200
    127 H51        83.5951   53.4077   33.5549 dc         1 CLA      0.033200
    128 H43        81.1666   52.2127   35.6367 dc         1 CLA      0.037000
    129 H42        82.1302   52.7603   36.9396 dc         1 CLA      0.037000
    130 H41        80.7307   53.6580   36.3951 dc         1 CLA      0.037000
    131 H3A        79.8243   59.9436   35.0425 dc         1 CLA      0.041100
    132 H2A        78.8284   57.1573   34.8342 dc         1 CLA      0.083100
    133 H2         81.9539   55.9017   35.0701 da         1 CLA      0.180900
    134 H18        84.1469   61.1791   44.0343 dc         1 CLA     -0.003900
    135 H13        81.4576   56.1157   41.1499 dc         1 CLA      0.019700
    136 H12        80.1177   54.6595   33.2507 dc         1 CLA      0.120400
    137 H11        81.6426   54.9482   32.2953 dc         1 CLA      0.120400
    138 C1         68.2730   61.6830   49.7062 Z1         2 LUT      0.509236
    139 C2         66.8506   61.5013   50.4400 Z2         2 LUT     -0.434695
    140 C3         65.9116   62.6973   50.6413 Z3         2 LUT      0.437453
    141 O3         66.0071   63.1201   51.9888 S1         2 LUT     -0.547129
    142 C4         66.2593   63.8890   49.7851 Z4         2 LUT     -0.468603
    143 C5         67.1710   63.6069   48.5774 Z5         2 LUT      0.279246
    144 C6         68.1917   62.6880   48.5608 Z6         2 LUT     -0.305473
    145 C7         68.7607   62.2605   47.2530 Z7         2 LUT      0.069402
    146 C8         69.5855   62.8987   46.3619 Z8         2 LUT     -0.191631
    147 C9         70.1197   62.5582   45.1030 Z9         2 LUT      0.196698
    148 C10        71.0100   63.4710   44.5184 Y1         2 LUT     -0.208611
    149 C11        71.8044   63.5672   43.3226 Y2         2 LUT      0.030784
    150 C12        73.0466   64.1792   43.1990 Y3         2 LUT     -0.220316
    151 C13        73.9094   64.1028   42.0170 Y4         2 LUT      0.215937
    152 C14        75.1109   64.7729   42.0832 Y5         2 LUT     -0.185793
    153 C15        76.2303   64.6612   41.2259 Y6         2 LUT     -0.057835
    154 C16        68.8586   60.2837   49.4437 Y7         2 LUT     -0.405615
    155 C17        69.0686   62.3331   50.9278 Y7         2 LUT     -0.405615
    156 C18        66.8964   64.4559   47.3604 Y9         2 LUT     -0.369639
    157 C19        69.7070   61.3465   44.3533 W1         2 LUT     -0.333362
    158 C20        73.4250   63.3358   40.7636 W2         2 LUT     -0.323439
    159 C21        87.1688   65.2863   35.1380 Z1         2 LUT      0.406104
    160 C22        87.7321   64.5146   33.8859 Z2         2 LUT     -0.404965
    161 C23        88.0980   65.4758   32.6697 Z3         2 LUT      0.391255
    162 O23        88.3855   64.5632   31.5489 S1         2 LUT     -0.528210
    163 C24        86.9840   66.4852   32.4577 W6         2 LUT     -0.258361
    164 C25        85.9766   66.7673   33.3844 Z5         2 LUT      0.133546
    165 C26        85.8958   66.0523   34.7300 W8         2 LUT     -0.147008
    166 C27        85.3216   66.7142   35.8975 Z7         2 LUT      0.023843
    167 C28        84.3135   66.2750   36.7038 Z8         2 LUT     -0.216987
    168 C29        83.5682   66.8368   37.8298 Z9         2 LUT      0.206524
    169 C30        82.4858   66.1434   38.2748 Y1         2 LUT     -0.215556
    170 C31        81.6209   66.6744   39.2578 Y2         2 LUT      0.025142
    171 C32        80.5087   65.9542   39.6600 Y3         2 LUT     -0.212209
    172 C33        79.5089   66.2679   40.6488 Y4         2 LUT      0.240937
    173 C34        78.3930   65.4637   40.7053 Y5         2 LUT     -0.218862
    174 C35        77.2814   65.4281   41.5613 Y6         2 LUT     -0.023547
    175 C36        88.4194   66.0940   35.6602 Y7         2 LUT     -0.393485
    176 C37        86.9378   64.1502   36.1891 Y7         2 LUT     -0.393485
    177 C38        84.7988   67.6593   33.1202 Y9         2 LUT     -0.387526
    178 C39        84.1349   68.1293   38.3402 W1         2 LUT     -0.322618
    179 C40        79.9006   67.3717   41.6524 W2         2 LUT     -0.358472
    180 H403       79.3800   67.1725   42.5940 R7         2 LUT      0.097720
    181 H402       80.9749   67.2318   41.9304 R7         2 LUT      0.097720
    182 H401       79.5781   68.4180   41.3662 R7         2 LUT      0.097720
    183 H393       84.9850   68.5241   37.8324 R4         2 LUT      0.082505
    184 H392       83.3269   68.7878   38.3578 R4         2 LUT      0.082505
    185 H391       84.4259   67.9619   39.3852 R4         2 LUT      0.082505
    186 H383       84.9295   68.2274   32.1128 R1         2 LUT      0.104030
    187 H382       83.9103   67.1642   32.9251 R1         2 LUT      0.104030
    188 H381       84.6778   68.3810   33.8888 R1         2 LUT      0.104030
    189 H373       86.5525   64.4734   37.1236 T4         2 LUT      0.089537
    190 H372       86.3105   63.4197   35.6923 T4         2 LUT      0.089537
    191 H371       87.8941   63.6640   36.4134 T4         2 LUT      0.089537
    192 H363       88.2367   66.7433   36.5550 T4         2 LUT      0.089537
    193 H362       89.1918   65.3444   35.9261 T4         2 LUT      0.089537
    194 H361       88.8661   66.7404   34.8944 T4         2 LUT      0.089537
    195 H222       88.6185   63.9643   34.1537 U2         2 LUT      0.127376
    196 H221       87.0007   63.7863   33.3873 U2         2 LUT      0.127376
    197 H203       73.3674   62.2037   40.8078 R7         2 LUT      0.087068
    198 H202       72.4067   63.7228   40.5648 R7         2 LUT      0.087068
    199 H201       74.0103   63.5190   39.8165 R7         2 LUT      0.087068
    200 H193       70.5373   60.6592   44.4501 R4         2 LUT      0.089716
    201 H192       68.9941   60.6898   44.7670 R4         2 LUT      0.089716
    202 H191       69.4694   61.5872   43.3253 R4         2 LUT      0.089716
    203 H183       65.9954   65.1261   47.5407 R1         2 LUT      0.094572
    204 H182       67.8099   65.1068   47.2709 R1         2 LUT      0.094572
    205 H181       66.7179   63.8222   46.4382 R1         2 LUT      0.094572
    206 H173       69.2131   61.6244   51.7229 T4         2 LUT      0.093752
    207 H172       70.0242   62.7226   50.6266 T4         2 LUT      0.093752
    208 H171       68.4537   63.0864   51.2416 T4         2 LUT      0.093752
    209 H163       69.8404   60.3279   48.9820 T4         2 LUT      0.093752
    210 H162       69.0207   59.6053   50.3539 T4         2 LUT      0.093752
    211 H161       68.1768   59.6175   48.7935 T4         2 LUT      0.093752
    212 HO3        65.5324   62.5247   52.5639 Q1         2 LUT      0.300121
    213 H8         69.8399   63.8974   46.6458 U7         2 LUT      0.080784
    214 H7         68.4287   61.2844   47.0551 U6         2 LUT      0.042190
    215 H42        65.3368   64.4084   49.4375 U5         2 LUT      0.145166
    216 H41        66.5770   64.7163   50.4283 U5         2 LUT      0.145166
    217 H35        77.1637   66.1490   42.4097 T3         2 LUT      0.077919
    218 H34        78.4569   64.6388   39.9341 T2         2 LUT      0.073626
    219 H32        80.3397   64.9748   39.1464 T1         2 LUT      0.092510
    220 H31        81.9727   67.6283   39.6839 U9         2 LUT      0.070048
    221 H30        82.2366   65.2481   37.7103 U8         2 LUT      0.085442
    222 H3         64.9007   62.5598   50.3115 U3         2 LUT     -0.031596
    223 H28        83.7475   65.3986   36.3054 U7         2 LUT      0.084728
    224 H27        85.7325   67.6086   36.1183 U6         2 LUT      0.087291
    225 H26        85.1083   65.3333   34.3774 Q6         2 LUT      0.075325
    226 H24        86.9579   66.8636   31.4340 Q5         2 LUT      0.094482
    227 H23        88.9970   66.0269   32.9787 U3         2 LUT     -0.024869
    228 H22        66.2442   60.9395   49.7737 U2         2 LUT      0.127376
    229 H21        66.9353   60.7977   51.2234 U2         2 LUT      0.127376
    230 H15        76.3074   63.9642   40.3576 T3         2 LUT      0.093200
    231 H14        75.4075   65.0903   43.0420 T2         2 LUT      0.068865
    232 H12        73.5058   64.7433   44.0079 T1         2 LUT      0.095507
    233 H11        71.4859   62.9281   42.4893 U9         2 LUT      0.068930
    234 H10        71.2454   64.3305   45.2445 U8         2 LUT      0.083911
    235 H1         88.6462   65.1392   30.8112 Q1         2 LUT      0.297311
@<TRIPOS>BOND
    1     6     1 1
    2     7     2 1
    3     8     3 1
    4     9     4 1
    5    11     4 1
    6    12     6 1
    7    13     9 1
    8    16     9 1
    9    25     5 1
   10    25    16 1
   11    26    10 1
   12    26    17 1
   13    27    18 1
   14    28    14 1
   15    28    19 1
   16    29    12 1
   17    30    13 1
   18    31    24 1
   19    32     1 1
   20    32    25 1
   21    33    21 1
   22    33    26 1
   23    34    22 1
   24    34    27 1
   25    35    23 1
   26    35    28 1
   27    36    12 1
   28    36    24 1
   29    37    13 1
   30    37    15 1
   31    38    31 1
   32    39    20 1
   33    39    32 1
   34    40     2 1
   35    40    33 1
   36    41     3 1
   37    41    34 1
   38    42     4 1
   39    42    35 1
   40    43    38 1
   41    44     5 1
   42    44    17 1
   43    44    39 1
   44    45    10 1
   45    45    18 1
   46    45    40 1
   47    46    19 1
   48    46    41 1
   49    47    14 1
   50    47    16 1
   51    47    42 1
   52    48    38 1
   53    49    48 1
   54    50    49 1
   55    51    50 1
   56    52    51 1
   57    53    51 1
   58    54    53 1
   59    55    54 1
   60    56    55 1
   61    57    56 1
   62    58    56 1
   63    59    58 1
   64    60    59 1
   65    61    60 1
   66    62    61 1
   67    63    61 1
   68    64    27 1
   69    64    46 1
   70    65     5 1
   71    65    10 1
   72    65    64 1
   73    65    14 1
   74    66    23 1
   75    67    23 1
   76    68    23 1
   77    69    22 1
   78    70    22 1
   79    71    22 1
   80    72    21 1
   81    73    21 1
   82    74    21 1
   83    75    20 1
   84    76    20 1
   85    77    20 1
   86    78    15 1
   87    79    15 1
   88    80    15 1
   89    81     8 1
   90    82     8 1
   91    83     8 1
   92    84     7 1
   93    85     7 1
   94    86     6 1
   95    87     6 1
   96    88     3 1
   97    89     3 1
   98    90     1 1
   99    91     1 1
  100    92    63 1
  101    93    63 1
  102    94    63 1
  103    95    62 1
  104    96    62 1
  105    97    62 1
  106    98    60 1
  107    99    60 1
  108   100    59 1
  109   101    59 1
  110   102    58 1
  111   103    58 1
  112   104    57 1
  113   105    57 1
  114   106    57 1
  115   107    55 1
  116   108    55 1
  117   109    54 1
  118   110    54 1
  119   111    53 1
  120   112    53 1
  121   113    19 1
  122   114    18 1
  123   115    17 1
  124   116     9 1
  125   117     2 1
  126   118    52 1
  127   119    52 1
  128   120    52 1
  129   121    51 1
  130   122    50 1
  131   123    50 1
  132   124    49 1
  133   125    49 1
  134   126    48 1
  135   127    48 1
  136   128    43 1
  137   129    43 1
  138   130    43 1
  139   131    39 1
  140   132    32 1
  141   133    31 1
  142   134    61 1
  143   135    56 1
  144   136    24 1
  145   137    24 1
  146   139   138 1
  147   140   139 1
  148   141   140 1
  149   142   140 1
  150   143   142 1
  151   144   138 1
  152   144   143 1
  153   145   144 1
  154   146   145 1
  155   147   146 1
  156   148   147 1
  157   149   148 1
  158   150   149 1
  159   151   150 1
  160   152   151 1
  161   153   152 1
  162   154   138 1
  163   155   138 1
  164   156   143 1
  165   157   147 1
  166   158   151 1
  167   160   159 1
  168   161   160 1
  169   162   161 1
  170   163   161 1
  171   164   163 1
  172   165   159 1
  173   165   164 1
  174   166   165 1
  175   167   166 1
  176   168   167 1
  177   169   168 1
  178   170   169 1
  179   171   170 1
  180   172   171 1
  181   173   172 1
  182   174   153 1
  183   174   173 1
  184   175   159 1
  185   176   159 1
  186   177   164 1
  187   178   168 1
  188   179   172 1
  189   180   179 1
  190   181   179 1
  191   182   179 1
  192   183   178 1
  193   184   178 1
  194   185   178 1
  195   186   177 1
  196   187   177 1
  197   188   177 1
  198   189   176 1
  199   190   176 1
  200   191   176 1
  201   192   175 1
  202   193   175 1
  203   194   175 1
  204   195   160 1
  205   196   160 1
  206   197   158 1
  207   198   158 1
  208   199   158 1
  209   200   157 1
  210   201   157 1
  211   202   157 1
  212   203   156 1
  213   204   156 1
  214   205   156 1
  215   206   155 1
  216   207   155 1
  217   208   155 1
  218   209   154 1
  219   210   154 1
  220   211   154 1
  221   212   141 1
  222   213   146 1
  223   214   145 1
  224   215   142 1
  225   216   142 1
  226   217   174 1
  227   218   173 1
  228   219   171 1
  229   220   170 1
  230   221   169 1
  231   222   140 1
  232   223   167 1
  233   224   166 1
  234   225   165 1
  235   226   163 1
  236   227   161 1
  237   228   139 1
  238   229   139 1
  239   230   153 1
  240   231   152 1
  241   232   150 1
  242   233   149 1
  243   234   148 1
  244   235   162 1
  245   65    153 1
  246   65    174 1
@<TRIPOS>SUBSTRUCTURE
      1 CLA               1 ****               0 ****  **** 
      2 LUT             138 ****               0 ****  **** 
