@<TRIPOS>MOLECULE
Cpptraj generated mol2 file.
  235   246     2     0     0
SMALL
USER_CHARGES


@<TRIPOS>ATOM
      1 CAA        78.1365   58.8826   33.8393 a2         1 CLA     -0.055900
      2 CAB        78.7426   61.9659   43.1013 c8         1 CLA     -0.148500
      3 CAC        71.5772   58.3581   42.6749 a2         1 CLA     -0.012600
      4 CAD        73.8237   56.3607   35.0352 ck         1 CLA      0.398800
      5 NA         77.3271   59.0793   37.2862 ns         1 CLA     -0.225500
      6 CBA        79.2726   58.5270   32.7644 a2         1 CLA     -0.135000
      7 CBB        79.8983   61.6905   43.7235 c0         1 CLA     -0.395200
      8 CBC        71.6966   56.8877   42.8276 a3         1 CLA     -0.037700
      9 CBD        75.2416   56.8537   34.6797 a1         1 CLA     -0.053900
     10 NB         77.3434   60.4496   40.0085 nm         1 CLA     -0.295700
     11 OBD        73.0919   55.6585   34.3378 o2         1 CLA     -0.494600
     12 CGA        79.4412   57.0266   32.4330 c4         1 CLA      0.827000
     13 CGD        76.1447   55.7214   34.2371 c4         1 CLA      0.655300
     14 ND         74.4494   58.1967   37.9639 nm         1 CLA     -0.291600
     15 CED        76.8198   53.4244   34.6858 a3         1 CLA      0.005400
     16 CHA        75.7474   57.7436   35.8640 cs         1 CLA     -0.123800
     17 CHB        79.1842   60.3694   38.3263 aa         1 CLA     -0.291900
     18 CHC        76.0633   60.6095   42.0611 aa         1 CLA     -0.090400
     19 CHD        72.5650   58.1739   39.7030 aa         1 CLA     -0.052000
     20 CMA        80.6458   58.1963   36.7313 a3         1 CLA     -0.230700
     21 CMB        80.6428   62.1485   40.4277 a3         1 CLA     -0.180800
     22 CMC        73.7009   60.3197   44.1533 a3         1 CLA     -0.134000
     23 CMD        71.1067   56.3935   37.3336 a3         1 CLA     -0.141100
     24 C1         80.6736   55.1909   33.3059 a2         1 CLA      0.023000
     25 C1A        77.0166   58.3697   36.1475 ac         1 CLA     -0.015100
     26 C1B        78.6755   60.7676   39.5635 cr         1 CLA      0.054700
     27 C1C        74.8496   60.0265   41.7921 cn         1 CLA     -0.005600
     28 C1D        73.0852   57.9113   38.3388 ap         1 CLA     -0.047300
     29 O1A        79.1723   56.5284   31.3335 o2         1 CLA     -0.610800
     30 O1D        76.7964   55.6775   33.1639 o2         1 CLA     -0.558200
     31 C2         81.3271   54.9016   34.6905 c8         1 CLA     -0.325100
     32 C2A        78.3350   58.2411   35.3038 a1         1 CLA      0.098600
     33 C2B        79.3518   61.5430   40.6610 cb         1 CLA      0.088500
     34 C2C        73.7310   59.8050   42.7294 cb         1 CLA      0.053700
     35 C2D        72.5195   57.0164   37.3476 cb         1 CLA      0.058900
     36 O2A        79.9653   56.4287   33.5400 o1         1 CLA     -0.437200
     37 O2D        76.1994   54.6473   35.1380 o1         1 CLA     -0.357600
     38 C3         81.6730   53.7262   35.2388 c5         1 CLA      0.031200
     39 C3A        79.3769   58.9616   36.1663 a1         1 CLA      0.166800
     40 C3B        78.4974   61.5043   41.7214 cb         1 CLA      0.035000
     41 C3C        72.8387   58.9574   42.0841 cb         1 CLA     -0.089900
     42 C3D        73.5282   56.9360   36.3209 cb         1 CLA     -0.035900
     43 C4         80.7128   52.8592   36.0474 a3         1 CLA     -0.053300
     44 C4A        78.5656   59.6132   37.2724 ac         1 CLA      0.001800
     45 C4B        77.2243   60.8651   41.3087 cn         1 CLA     -0.020900
     46 C4C        73.2981   58.8387   40.6981 cr         1 CLA     -0.044400
     47 C4D        74.6116   57.7318   36.7212 c6         1 CLA     -0.046000
     48 C5         83.1629   53.3620   35.1316 a2         1 CLA     -0.070400
     49 C6         84.1545   54.4539   35.5326 a2         1 CLA      0.043900
     50 C7         84.0421   54.8325   37.0089 a2         1 CLA     -0.150000
     51 C8         84.8558   55.9758   37.6147 a1         1 CLA      0.064200
     52 C9         86.3184   55.9690   37.1228 a3         1 CLA     -0.259300
     53 C10        84.7867   56.0943   39.1656 a2         1 CLA     -0.071900
     54 C11        83.4290   56.4416   39.6144 a2         1 CLA      0.014500
     55 C12        83.3641   56.5717   41.1485 a2         1 CLA     -0.112100
     56 C13        81.9473   56.8228   41.6783 a1         1 CLA      0.089200
     57 C14        81.2042   57.9393   41.0306 a3         1 CLA     -0.239100
     58 C15        81.7533   56.6335   43.2267 a2         1 CLA     -0.102200
     59 C16        82.7266   57.3740   44.1524 a2         1 CLA      0.023900
     60 C17        82.3640   58.8715   44.1536 a2         1 CLA     -0.105700
     61 C18        83.1468   59.8371   45.1953 a1         1 CLA      0.206800
     62 C19        82.9697   59.5546   46.7088 a3         1 CLA     -0.280100
     63 C20        84.6078   60.2778   44.8241 a3         1 CLA     -0.280100
     64 NC         74.5887   59.4870   40.5575 nx         1 CLA     -0.309200
     65 MG         75.9622   59.4387   38.8658 mg         1 CLA      0.895000
     66 HMD3       70.8741   56.0735   38.3540 dc         1 CLA      0.064300
     67 HMD2       70.4213   57.1089   37.0173 dc         1 CLA      0.064300
     68 HMD1       70.9803   55.5184   36.7402 dc         1 CLA      0.064300
     69 HMC3       74.2593   59.6327   44.8332 dc         1 CLA      0.052100
     70 HMC2       74.1837   61.2348   44.0572 dc         1 CLA      0.052100
     71 HMC1       72.7204   60.5051   44.3982 dc         1 CLA      0.052100
     72 HMB3       80.7477   62.5493   39.4449 dc         1 CLA      0.063600
     73 HMB2       80.5646   63.0297   41.0723 dc         1 CLA      0.063600
     74 HMB1       81.5372   61.5205   40.6644 dc         1 CLA      0.063600
     75 HMA3       80.2611   57.2387   37.1524 dc         1 CLA      0.058300
     76 HMA2       81.3987   58.0114   35.9611 dc         1 CLA      0.058300
     77 HMA1       81.1105   58.6453   37.6330 dc         1 CLA      0.058300
     78 HED3       77.8508   53.5974   34.3912 dc         1 CLA      0.079300
     79 HED2       76.6870   52.6079   35.4071 dc         1 CLA      0.079300
     80 HED1       76.3524   53.1193   33.8096 dc         1 CLA      0.079300
     81 HBC3       71.0778   56.5020   43.6534 dc         1 CLA      0.016300
     82 HBC2       71.6633   56.3064   41.9512 dc         1 CLA      0.016300
     83 HBC1       72.7681   56.8747   43.0904 dc         1 CLA      0.016300
     84 HBB2       80.0936   62.0664   44.7226 da         1 CLA      0.183000
     85 HBB1       80.7239   61.1676   43.2059 da         1 CLA      0.183000
     86 HBA2       78.9886   59.1172   31.8828 dc         1 CLA      0.029400
     87 HBA1       80.2284   58.8416   33.1763 dc         1 CLA      0.029400
     88 HAC2       71.4999   58.7615   43.6970 dc         1 CLA      0.029300
     89 HAC1       70.7078   58.7091   42.1473 dc         1 CLA      0.029300
     90 HAA2       77.1290   58.5892   33.3992 dc         1 CLA      0.028700
     91 HAA1       78.1461   59.9525   33.9551 dc         1 CLA      0.028700
     92 H203       84.7233   61.2991   45.1293 dc         1 CLA      0.065600
     93 H202       85.2747   59.5285   45.1611 dc         1 CLA      0.065600
     94 H201       84.6596   60.2555   43.7407 dc         1 CLA      0.065600
     95 H193       83.5461   60.3287   47.2582 dc         1 CLA      0.065600
     96 H192       81.8962   59.5048   47.0328 dc         1 CLA      0.065600
     97 H191       83.4190   58.5642   46.7095 dc         1 CLA      0.065600
     98 H172       82.6071   59.3137   43.1777 dc         1 CLA      0.027600
     99 H171       81.2677   59.0490   44.2094 dc         1 CLA      0.027600
    100 H162       82.4990   56.9356   45.1759 dc         1 CLA      0.002900
    101 H161       83.7968   57.1285   44.0972 dc         1 CLA      0.002900
    102 H152       80.6454   56.6195   43.4517 dc         1 CLA      0.029100
    103 H151       82.0276   55.5934   43.3288 dc         1 CLA      0.029100
    104 H143       80.2841   58.2885   41.5761 dc         1 CLA      0.063600
    105 H142       81.9037   58.8341   40.9519 dc         1 CLA      0.063600
    106 H141       80.8609   57.6037   40.0201 dc         1 CLA      0.063600
    107 H122       83.7696   55.6528   41.5745 dc         1 CLA      0.032500
    108 H121       83.9699   57.5005   41.4774 dc         1 CLA      0.032500
    109 H112       83.0682   57.3682   39.1286 dc         1 CLA      0.006600
    110 H111       82.7713   55.7441   39.3020 dc         1 CLA      0.006600
    111 H102       85.1591   55.1723   39.6052 dc         1 CLA      0.024100
    112 H101       85.3609   56.9199   39.5002 dc         1 CLA      0.024100
    113 HHD        71.6218   57.7888   40.0288 da         1 CLA      0.174300
    114 HHC        76.1606   60.7591   43.0893 da         1 CLA      0.136800
    115 HHB        80.2210   60.6144   38.1298 da         1 CLA      0.138300
    116 HBD        75.0605   57.4991   33.7790 dc         1 CLA      0.107700
    117 HAB        77.9775   62.4608   43.6791 da         1 CLA      0.155200
    118 H93        86.8231   56.6667   37.7602 dc         1 CLA      0.069500
    119 H92        86.7325   55.0013   37.1421 dc         1 CLA      0.069500
    120 H91        86.5810   56.2645   36.1084 dc         1 CLA      0.069500
    121 H8         84.5039   56.9397   37.2119 dc         1 CLA      0.029300
    122 H72        83.0293   55.1691   36.9712 dc         1 CLA      0.044400
    123 H71        84.2681   53.9173   37.6244 dc         1 CLA      0.044400
    124 H62        85.1522   53.9932   35.2721 dc         1 CLA      0.015600
    125 H61        84.1362   55.4221   35.0292 dc         1 CLA      0.015600
    126 H52        83.4065   52.4297   35.6272 dc         1 CLA      0.033200
    127 H51        83.3936   53.2719   34.0820 dc         1 CLA      0.033200
    128 H43        80.8953   51.8711   35.7366 dc         1 CLA      0.037000
    129 H42        80.8635   53.0125   37.1092 dc         1 CLA      0.037000
    130 H41        79.6928   53.1176   35.8512 dc         1 CLA      0.037000
    131 H3A        79.8241   59.7641   35.5006 dc         1 CLA      0.041100
    132 H2A        78.5623   57.1498   35.1686 dc         1 CLA      0.083100
    133 H2         81.2929   55.8570   35.2617 da         1 CLA      0.180900
    134 H18        82.6229   60.7638   45.0506 dc         1 CLA     -0.003900
    135 H13        81.3523   56.0107   41.2397 dc         1 CLA      0.019700
    136 H12        80.0798   54.3446   32.9807 dc         1 CLA      0.120400
    137 H11        81.4919   55.4024   32.6115 dc         1 CLA      0.120400
    138 C1         68.5570   61.9758   50.3564 Z1         2 LUT      0.509236
    139 C2         67.3048   61.8237   51.1643 Z2         2 LUT     -0.434695
    140 C3         66.4232   63.0335   51.5020 Z3         2 LUT      0.437453
    141 O3         66.7309   63.7234   52.7156 S1         2 LUT     -0.547129
    142 C4         66.5087   64.0160   50.3279 Z4         2 LUT     -0.468603
    143 C5         67.2249   63.5728   49.1055 Z5         2 LUT      0.279246
    144 C6         68.1766   62.6620   49.0902 Z6         2 LUT     -0.305473
    145 C7         68.7260   62.0921   47.8242 Z7         2 LUT      0.069402
    146 C8         69.6897   62.7217   47.1080 Z8         2 LUT     -0.191631
    147 C9         70.0679   62.4263   45.7086 Z9         2 LUT      0.196698
    148 C10        70.9940   63.2262   45.2031 Y1         2 LUT     -0.208611
    149 C11        71.6065   63.2426   43.9136 Y2         2 LUT      0.030784
    150 C12        72.7716   63.7876   43.5708 Y3         2 LUT     -0.220316
    151 C13        73.4819   63.6579   42.3186 Y4         2 LUT      0.215937
    152 C14        74.7946   63.9643   42.3228 Y5         2 LUT     -0.185793
    153 C15        75.8429   64.0156   41.3728 Y6         2 LUT     -0.057835
    154 C16        69.1998   60.5657   50.2523 Y7         2 LUT     -0.405615
    155 C17        69.5832   62.8234   51.0595 Y7         2 LUT     -0.405615
    156 C18        66.6996   64.2888   47.9314 Y9         2 LUT     -0.369639
    157 C19        69.3869   61.3479   44.8918 W1         2 LUT     -0.333362
    158 C20        72.8203   63.0377   41.0672 W2         2 LUT     -0.323439
    159 C21        86.7511   65.4931   34.8005 Z1         2 LUT      0.406104
    160 C22        87.5078   65.0629   33.4993 Z2         2 LUT     -0.404965
    161 C23        87.8979   66.1980   32.5727 Z3         2 LUT      0.391255
    162 O23        88.7686   65.8318   31.4819 S1         2 LUT     -0.528210
    163 C24        86.7768   67.1313   32.3241 W6         2 LUT     -0.258361
    164 C25        85.6698   67.1951   33.1327 Z5         2 LUT      0.133546
    165 C26        85.4687   66.3283   34.4332 W8         2 LUT     -0.147008
    166 C27        84.8434   66.9248   35.6342 Z7         2 LUT      0.023843
    167 C28        83.6325   66.5075   36.1833 Z8         2 LUT     -0.216987
    168 C29        83.0034   66.9008   37.4292 Z9         2 LUT      0.206524
    169 C30        81.9393   66.1939   37.8671 Y1         2 LUT     -0.215556
    170 C31        81.1774   66.3020   39.0257 Y2         2 LUT      0.025142
    171 C32        80.1441   65.4596   39.2983 Y3         2 LUT     -0.212209
    172 C33        79.2755   65.5597   40.5490 Y4         2 LUT      0.240937
    173 C34        78.1054   64.7809   40.5066 Y5         2 LUT     -0.218862
    174 C35        77.0724   64.6622   41.4954 Y6         2 LUT     -0.023547
    175 C36        87.8277   66.2650   35.6187 Y7         2 LUT     -0.393485
    176 C37        86.4732   64.1478   35.5696 Y7         2 LUT     -0.393485
    177 C38        84.6263   68.1016   32.7202 Y9         2 LUT     -0.387526
    178 C39        83.5310   68.0316   38.2880 W1         2 LUT     -0.322618
    179 C40        79.6919   66.4612   41.6342 W2         2 LUT     -0.358472
    180 H403       79.2678   66.2148   42.6137 R7         2 LUT      0.097720
    181 H402       80.7728   66.4908   41.8393 R7         2 LUT      0.097720
    182 H401       79.3481   67.4975   41.5242 R7         2 LUT      0.097720
    183 H393       84.0126   68.8103   37.6316 R4         2 LUT      0.082505
    184 H392       82.6914   68.5608   38.7660 R4         2 LUT      0.082505
    185 H391       84.2438   67.6319   38.9414 R4         2 LUT      0.082505
    186 H383       83.6921   67.5154   32.5469 R1         2 LUT      0.104030
    187 H382       84.5223   68.8740   33.5071 R1         2 LUT      0.104030
    188 H381       84.8527   68.5741   31.7444 R1         2 LUT      0.104030
    189 H373       86.1724   64.4346   36.5481 T4         2 LUT      0.089537
    190 H372       85.7076   63.4519   35.1622 T4         2 LUT      0.089537
    191 H371       87.3325   63.5597   35.6403 T4         2 LUT      0.089537
    192 H363       87.5131   66.4698   36.6476 T4         2 LUT      0.089537
    193 H362       88.8430   65.8488   35.6931 T4         2 LUT      0.089537
    194 H361       87.9347   67.3158   35.2383 T4         2 LUT      0.089537
    195 H222       88.4182   64.4673   33.5796 U2         2 LUT      0.127376
    196 H221       86.9961   64.3870   32.8663 U2         2 LUT      0.127376
    197 H203       71.8087   63.3523   40.8393 R7         2 LUT      0.087068
    198 H202       73.4007   63.1782   40.1794 R7         2 LUT      0.087068
    199 H201       72.7129   61.9493   41.1975 R7         2 LUT      0.087068
    200 H193       69.7771   60.3658   44.9937 R4         2 LUT      0.089716
    201 H192       68.3733   61.2097   45.2380 R4         2 LUT      0.089716
    202 H191       69.3874   61.5922   43.8419 R4         2 LUT      0.089716
    203 H183       67.1451   63.9427   46.9825 R1         2 LUT      0.094572
    204 H182       65.5754   64.3567   47.8844 R1         2 LUT      0.094572
    205 H181       66.9833   65.3393   48.1010 R1         2 LUT      0.094572
    206 H173       70.3269   63.0659   50.3137 T4         2 LUT      0.093752
    207 H172       69.1880   63.7504   51.4021 T4         2 LUT      0.093752
    208 H171       70.0429   62.3484   51.9615 T4         2 LUT      0.093752
    209 H163       70.1667   60.6849   49.8169 T4         2 LUT      0.093752
    210 H162       69.3512   60.0837   51.2223 T4         2 LUT      0.093752
    211 H161       68.6603   59.9164   49.6431 T4         2 LUT      0.093752
    212 HO3        66.6020   63.1242   53.5298 Q1         2 LUT      0.300121
    213 H8         70.1892   63.5803   47.5308 U7         2 LUT      0.080784
    214 H7         68.1536   61.3337   47.4198 U6         2 LUT      0.042190
    215 H42        65.5292   64.3524   50.0255 U5         2 LUT      0.145166
    216 H41        66.9426   64.9523   50.7129 U5         2 LUT      0.145166
    217 H35        77.2571   65.0071   42.4747 T3         2 LUT      0.077919
    218 H34        77.9386   64.2348   39.6228 T2         2 LUT      0.073626
    219 H32        79.8702   64.7720   38.5022 T1         2 LUT      0.092510
    220 H31        81.4564   67.0178   39.7292 U9         2 LUT      0.070048
    221 H30        81.7272   65.4489   37.1241 U8         2 LUT      0.085442
    222 H3         65.4178   62.6952   51.6838 U3         2 LUT     -0.031596
    223 H28        83.1301   65.6756   35.7566 U7         2 LUT      0.084728
    224 H27        85.3757   67.7746   36.1946 U6         2 LUT      0.087291
    225 H26        84.8014   65.5537   34.1027 Q6         2 LUT      0.075325
    226 H24        86.7450   67.7447   31.3424 Q5         2 LUT      0.094482
    227 H23        88.4819   66.8876   33.1831 U3         2 LUT     -0.024869
    228 H22        66.5590   61.1295   50.6418 U2         2 LUT      0.127376
    229 H21        67.5773   61.2750   52.0765 U2         2 LUT      0.127376
    230 H15        75.6656   63.5735   40.3581 T3         2 LUT      0.093200
    231 H14        75.1423   64.2897   43.3173 T2         2 LUT      0.068865
    232 H12        73.2782   64.2952   44.4090 T1         2 LUT      0.095507
    233 H11        71.1338   62.6716   43.1303 U9         2 LUT      0.068930
    234 H10        71.2857   64.0655   45.8812 U8         2 LUT      0.083911
    235 H1         88.2941   65.5366   30.7090 Q1         2 LUT      0.297311
@<TRIPOS>BOND
    1     6     1 1
    2     7     2 1
    3     8     3 1
    4     9     4 1
    5    11     4 1
    6    12     6 1
    7    13     9 1
    8    16     9 1
    9    25     5 1
   10    25    16 1
   11    26    10 1
   12    26    17 1
   13    27    18 1
   14    28    14 1
   15    28    19 1
   16    29    12 1
   17    30    13 1
   18    31    24 1
   19    32     1 1
   20    32    25 1
   21    33    21 1
   22    33    26 1
   23    34    22 1
   24    34    27 1
   25    35    23 1
   26    35    28 1
   27    36    12 1
   28    36    24 1
   29    37    13 1
   30    37    15 1
   31    38    31 1
   32    39    20 1
   33    39    32 1
   34    40     2 1
   35    40    33 1
   36    41     3 1
   37    41    34 1
   38    42     4 1
   39    42    35 1
   40    43    38 1
   41    44     5 1
   42    44    17 1
   43    44    39 1
   44    45    10 1
   45    45    18 1
   46    45    40 1
   47    46    19 1
   48    46    41 1
   49    47    14 1
   50    47    16 1
   51    47    42 1
   52    48    38 1
   53    49    48 1
   54    50    49 1
   55    51    50 1
   56    52    51 1
   57    53    51 1
   58    54    53 1
   59    55    54 1
   60    56    55 1
   61    57    56 1
   62    58    56 1
   63    59    58 1
   64    60    59 1
   65    61    60 1
   66    62    61 1
   67    63    61 1
   68    64    27 1
   69    64    46 1
   70    65     5 1
   71    65    10 1
   72    65    64 1
   73    65    14 1
   74    66    23 1
   75    67    23 1
   76    68    23 1
   77    69    22 1
   78    70    22 1
   79    71    22 1
   80    72    21 1
   81    73    21 1
   82    74    21 1
   83    75    20 1
   84    76    20 1
   85    77    20 1
   86    78    15 1
   87    79    15 1
   88    80    15 1
   89    81     8 1
   90    82     8 1
   91    83     8 1
   92    84     7 1
   93    85     7 1
   94    86     6 1
   95    87     6 1
   96    88     3 1
   97    89     3 1
   98    90     1 1
   99    91     1 1
  100    92    63 1
  101    93    63 1
  102    94    63 1
  103    95    62 1
  104    96    62 1
  105    97    62 1
  106    98    60 1
  107    99    60 1
  108   100    59 1
  109   101    59 1
  110   102    58 1
  111   103    58 1
  112   104    57 1
  113   105    57 1
  114   106    57 1
  115   107    55 1
  116   108    55 1
  117   109    54 1
  118   110    54 1
  119   111    53 1
  120   112    53 1
  121   113    19 1
  122   114    18 1
  123   115    17 1
  124   116     9 1
  125   117     2 1
  126   118    52 1
  127   119    52 1
  128   120    52 1
  129   121    51 1
  130   122    50 1
  131   123    50 1
  132   124    49 1
  133   125    49 1
  134   126    48 1
  135   127    48 1
  136   128    43 1
  137   129    43 1
  138   130    43 1
  139   131    39 1
  140   132    32 1
  141   133    31 1
  142   134    61 1
  143   135    56 1
  144   136    24 1
  145   137    24 1
  146   139   138 1
  147   140   139 1
  148   141   140 1
  149   142   140 1
  150   143   142 1
  151   144   138 1
  152   144   143 1
  153   145   144 1
  154   146   145 1
  155   147   146 1
  156   148   147 1
  157   149   148 1
  158   150   149 1
  159   151   150 1
  160   152   151 1
  161   153   152 1
  162   154   138 1
  163   155   138 1
  164   156   143 1
  165   157   147 1
  166   158   151 1
  167   160   159 1
  168   161   160 1
  169   162   161 1
  170   163   161 1
  171   164   163 1
  172   165   159 1
  173   165   164 1
  174   166   165 1
  175   167   166 1
  176   168   167 1
  177   169   168 1
  178   170   169 1
  179   171   170 1
  180   172   171 1
  181   173   172 1
  182   174   153 1
  183   174   173 1
  184   175   159 1
  185   176   159 1
  186   177   164 1
  187   178   168 1
  188   179   172 1
  189   180   179 1
  190   181   179 1
  191   182   179 1
  192   183   178 1
  193   184   178 1
  194   185   178 1
  195   186   177 1
  196   187   177 1
  197   188   177 1
  198   189   176 1
  199   190   176 1
  200   191   176 1
  201   192   175 1
  202   193   175 1
  203   194   175 1
  204   195   160 1
  205   196   160 1
  206   197   158 1
  207   198   158 1
  208   199   158 1
  209   200   157 1
  210   201   157 1
  211   202   157 1
  212   203   156 1
  213   204   156 1
  214   205   156 1
  215   206   155 1
  216   207   155 1
  217   208   155 1
  218   209   154 1
  219   210   154 1
  220   211   154 1
  221   212   141 1
  222   213   146 1
  223   214   145 1
  224   215   142 1
  225   216   142 1
  226   217   174 1
  227   218   173 1
  228   219   171 1
  229   220   170 1
  230   221   169 1
  231   222   140 1
  232   223   167 1
  233   224   166 1
  234   225   165 1
  235   226   163 1
  236   227   161 1
  237   228   139 1
  238   229   139 1
  239   230   153 1
  240   231   152 1
  241   232   150 1
  242   233   149 1
  243   234   148 1
  244   235   162 1
  245   65    153 1
  246   65    174 1
@<TRIPOS>SUBSTRUCTURE
      1 CLA               1 ****               0 ****  **** 
      2 LUT             138 ****               0 ****  **** 
