@<TRIPOS>MOLECULE
Cpptraj generated mol2 file.
  235   246     2     0     0
SMALL
USER_CHARGES


@<TRIPOS>ATOM
      1 CAA        79.4106   58.4592   34.6779 a2         1 CLA     -0.055900
      2 CAB        79.3361   62.2138   43.3574 c8         1 CLA     -0.148500
      3 CAC        72.2960   58.0779   43.0690 a2         1 CLA     -0.012600
      4 CAD        75.3420   55.6014   35.7988 ck         1 CLA      0.398800
      5 NA         78.5578   58.4320   37.9833 ns         1 CLA     -0.225500
      6 CBA        80.7057   58.4895   33.8486 a2         1 CLA     -0.135000
      7 CBB        80.4993   62.5815   43.9493 c0         1 CLA     -0.395200
      8 CBC        71.8258   56.6424   42.7011 a3         1 CLA     -0.037700
      9 CBD        76.7709   56.2621   35.4185 a1         1 CLA     -0.053900
     10 NB         78.3505   59.8847   40.6152 nm         1 CLA     -0.295700
     11 OBD        74.7459   54.8306   35.0433 o2         1 CLA     -0.494600
     12 CGA        81.3989   57.0811   33.5085 c4         1 CLA      0.827000
     13 CGD        77.6238   55.2275   34.7783 c4         1 CLA      0.655300
     14 ND         75.7508   57.7650   38.5482 nm         1 CLA     -0.291600
     15 CED        78.2659   52.9215   34.8403 a3         1 CLA      0.005400
     16 CHA        77.1518   56.9883   36.6825 cs         1 CLA     -0.123800
     17 CHB        80.3005   59.8160   39.0706 aa         1 CLA     -0.291900
     18 CHC        76.8736   60.3839   42.5502 aa         1 CLA     -0.090400
     19 CHD        73.6936   57.6850   40.0731 aa         1 CLA     -0.052000
     20 CMA        81.9343   57.7065   37.5018 a3         1 CLA     -0.230700
     21 CMB        81.6937   61.7205   41.1138 a3         1 CLA     -0.180800
     22 CMC        74.3983   60.0310   44.5384 a3         1 CLA     -0.134000
     23 CMD        72.5397   55.7367   37.7970 a3         1 CLA     -0.141100
     24 C1         82.4581   55.0917   34.1945 a2         1 CLA      0.023000
     25 C1A        78.3441   57.6954   36.8467 ac         1 CLA     -0.015100
     26 C1B        79.5956   60.3150   40.2049 cr         1 CLA      0.054700
     27 C1C        75.7093   59.7333   42.2053 cn         1 CLA     -0.005600
     28 C1D        74.4273   57.3174   38.9041 ap         1 CLA     -0.047300
     29 O1A        81.3225   56.5767   32.3809 o2         1 CLA     -0.610800
     30 O1D        78.3539   55.5065   33.8248 o2         1 CLA     -0.558200
     31 C2         83.1987   54.6121   35.3847 c8         1 CLA     -0.325100
     32 C2A        79.6424   57.7274   36.0171 a1         1 CLA      0.098600
     33 C2B        80.2337   61.1711   41.1963 cb         1 CLA      0.088500
     34 C2C        74.5137   59.5336   43.1304 cb         1 CLA      0.053700
     35 C2D        73.8870   56.3620   37.8981 cb         1 CLA      0.058900
     36 O2A        82.0596   56.4209   34.5165 o1         1 CLA     -0.437200
     37 O2D        77.5788   54.0253   35.4553 o1         1 CLA     -0.357600
     38 C3         84.3771   53.9306   35.2810 c5         1 CLA      0.031200
     39 C3A        80.6702   58.4660   36.9257 a1         1 CLA      0.166800
     40 C3B        79.2776   61.3692   42.1890 cb         1 CLA      0.035000
     41 C3C        73.6585   58.6307   42.4420 cb         1 CLA     -0.089900
     42 C3D        74.9564   56.2628   36.9960 cb         1 CLA     -0.035900
     43 C4         84.4832   52.4164   35.2408 a3         1 CLA     -0.053300
     44 C4A        79.7963   59.0164   38.0456 ac         1 CLA      0.001800
     45 C4B        78.0865   60.5883   41.8107 cn         1 CLA     -0.020900
     46 C4C        74.2036   58.4489   41.1189 cr         1 CLA     -0.044400
     47 C4D        75.9905   57.1189   37.4320 c6         1 CLA     -0.046000
     48 C5         85.6688   54.6810   35.2932 a2         1 CLA     -0.070400
     49 C6         85.7126   55.9643   36.1375 a2         1 CLA      0.043900
     50 C7         85.6663   55.6984   37.7019 a2         1 CLA     -0.150000
     51 C8         85.7784   57.0359   38.5151 a1         1 CLA      0.064200
     52 C9         87.0199   57.8033   38.0293 a3         1 CLA     -0.259300
     53 C10        85.9570   56.5751   40.0755 a2         1 CLA     -0.071900
     54 C11        85.7476   57.6573   41.1420 a2         1 CLA      0.014500
     55 C12        85.9233   57.0296   42.5580 a2         1 CLA     -0.112100
     56 C13        86.2339   58.0320   43.8013 a1         1 CLA      0.089200
     57 C14        87.6395   58.6692   43.6803 a3         1 CLA     -0.239100
     58 C15        86.0595   57.1667   45.0813 a2         1 CLA     -0.102200
     59 C16        86.1428   57.9102   46.3648 a2         1 CLA      0.023900
     60 C17        85.9138   56.9346   47.4910 a2         1 CLA     -0.105700
     61 C18        85.9998   57.6270   48.9258 a1         1 CLA      0.206800
     62 C19        84.7202   58.4323   49.2394 a3         1 CLA     -0.280100
     63 C20        86.1140   56.4999   50.0482 a3         1 CLA     -0.280100
     64 NC         75.4540   59.0916   41.0404 nx         1 CLA     -0.309200
     65 MG         77.0021   58.8978   39.4689 mg         1 CLA      0.895000
     66 HMD3       72.6875   54.9046   37.1243 dc         1 CLA      0.064300
     67 HMD2       72.3200   55.3905   38.8003 dc         1 CLA      0.064300
     68 HMD1       71.6939   56.3259   37.4366 dc         1 CLA      0.064300
     69 HMC3       75.1252   60.8368   44.6118 dc         1 CLA      0.052100
     70 HMC2       73.5011   60.5859   44.6185 dc         1 CLA      0.052100
     71 HMC1       74.4555   59.2492   45.2976 dc         1 CLA      0.052100
     72 HMB3       82.0762   61.7401   40.1216 dc         1 CLA      0.063600
     73 HMB2       81.6051   62.7485   41.4733 dc         1 CLA      0.063600
     74 HMB1       82.2465   61.1100   41.7471 dc         1 CLA      0.063600
     75 HMA3       81.6191   56.7683   37.8895 dc         1 CLA      0.058300
     76 HMA2       82.6304   57.5358   36.6324 dc         1 CLA      0.058300
     77 HMA1       82.5534   58.1899   38.3148 dc         1 CLA      0.058300
     78 HED3       78.1249   52.0112   35.3868 dc         1 CLA      0.079300
     79 HED2       77.7937   52.8441   33.8768 dc         1 CLA      0.079300
     80 HED1       79.3342   53.1133   34.7091 dc         1 CLA      0.079300
     81 HBC3       71.1382   56.2654   43.4655 dc         1 CLA      0.016300
     82 HBC2       71.3914   56.5786   41.7110 dc         1 CLA      0.016300
     83 HBC1       72.7719   56.0767   42.7812 dc         1 CLA      0.016300
     84 HBB2       80.5255   63.1936   44.8825 da         1 CLA      0.183000
     85 HBB1       81.5359   62.2508   43.6773 da         1 CLA      0.183000
     86 HBA2       80.5812   58.8951   32.8448 dc         1 CLA      0.029400
     87 HBA1       81.4355   59.0703   34.4372 dc         1 CLA      0.029400
     88 HAC2       72.5031   57.9737   44.1633 dc         1 CLA      0.029300
     89 HAC1       71.4781   58.8384   42.8807 dc         1 CLA      0.029300
     90 HAA2       78.7260   57.8156   34.0961 dc         1 CLA      0.028700
     91 HAA1       78.9781   59.4294   34.7503 dc         1 CLA      0.028700
     92 H203       85.2934   55.7513   49.9156 dc         1 CLA      0.065600
     93 H202       87.0206   56.0381   49.8547 dc         1 CLA      0.065600
     94 H201       86.2944   56.8519   51.1301 dc         1 CLA      0.065600
     95 H193       84.4876   58.4555   50.3121 dc         1 CLA      0.065600
     96 H192       84.8546   59.4132   48.9135 dc         1 CLA      0.065600
     97 H191       83.8292   57.9520   48.8248 dc         1 CLA      0.065600
     98 H172       84.9714   56.3834   47.4180 dc         1 CLA      0.027600
     99 H171       86.7882   56.2532   47.5205 dc         1 CLA      0.027600
    100 H162       87.2000   58.1634   46.3925 dc         1 CLA      0.002900
    101 H161       85.4140   58.7503   46.3792 dc         1 CLA      0.002900
    102 H152       85.0891   56.7476   45.0351 dc         1 CLA      0.029100
    103 H151       86.7955   56.3482   45.0454 dc         1 CLA      0.029100
    104 H143       87.6541   59.4238   42.9019 dc         1 CLA      0.063600
    105 H142       87.8644   59.2801   44.5452 dc         1 CLA      0.063600
    106 H141       88.3812   57.9478   43.4089 dc         1 CLA      0.063600
    107 H122       84.9545   56.6433   42.6350 dc         1 CLA      0.032500
    108 H121       86.6754   56.3131   42.4729 dc         1 CLA      0.032500
    109 H112       86.4788   58.3884   40.9042 dc         1 CLA      0.006600
    110 H111       84.7854   58.0907   40.9805 dc         1 CLA      0.006600
    111 H102       85.1618   55.8820   40.2994 dc         1 CLA      0.024100
    112 H101       86.8997   55.9464   40.0891 dc         1 CLA      0.024100
    113 HHD        72.6004   57.4614   40.2005 da         1 CLA      0.174300
    114 HHC        76.9304   60.8742   43.5360 da         1 CLA      0.136800
    115 HHB        81.1958   60.2769   38.8768 da         1 CLA      0.138300
    116 HBD        76.6646   56.9879   34.6864 dc         1 CLA      0.107700
    117 HAB        78.4485   62.6507   43.7273 da         1 CLA      0.155200
    118 H93        86.8242   58.1063   36.9956 dc         1 CLA      0.069500
    119 H92        87.2617   58.7324   38.6443 dc         1 CLA      0.069500
    120 H91        87.9712   57.1561   38.0447 dc         1 CLA      0.069500
    121 H8         84.8834   57.6148   38.4981 dc         1 CLA      0.029300
    122 H72        84.6952   55.1935   38.0051 dc         1 CLA      0.044400
    123 H71        86.4828   55.0640   37.9708 dc         1 CLA      0.044400
    124 H62        86.6874   56.4433   35.9597 dc         1 CLA      0.015600
    125 H61        84.8121   56.5673   35.9053 dc         1 CLA      0.015600
    126 H52        86.5316   54.0846   35.5328 dc         1 CLA      0.033200
    127 H51        85.7541   55.0251   34.2212 dc         1 CLA      0.033200
    128 H43        85.0451   52.0217   34.3858 dc         1 CLA      0.037000
    129 H42        85.0407   51.9945   36.1155 dc         1 CLA      0.037000
    130 H41        83.5048   51.9262   35.1550 dc         1 CLA      0.037000
    131 H3A        80.9806   59.4988   36.5360 dc         1 CLA      0.041100
    132 H2A        79.9526   56.7531   35.7215 dc         1 CLA      0.083100
    133 H2         82.8577   54.8146   36.4290 da         1 CLA      0.180900
    134 H18        86.7938   58.3145   49.0974 dc         1 CLA     -0.003900
    135 H13        85.5347   58.8845   43.7806 dc         1 CLA      0.019700
    136 H12        81.5757   54.4319   33.9383 dc         1 CLA      0.120400
    137 H11        83.1813   55.0620   33.3809 dc         1 CLA      0.120400
    138 C1         69.4675   61.7200   49.5318 Z1         2 LUT      0.509236
    139 C2         68.3375   61.1611   50.2994 Z2         2 LUT     -0.434695
    140 C3         67.3230   62.1086   50.9859 Z3         2 LUT      0.437453
    141 O3         67.5678   62.4230   52.3494 S1         2 LUT     -0.547129
    142 C4         67.4149   63.5046   50.3644 Z4         2 LUT     -0.468603
    143 C5         67.9490   63.6199   48.9010 Z5         2 LUT      0.279246
    144 C6         68.8835   62.7471   48.5024 Z6         2 LUT     -0.305473
    145 C7         69.1439   62.4649   47.0533 Z7         2 LUT      0.069402
    146 C8         70.2530   62.8866   46.3688 Z8         2 LUT     -0.191631
    147 C9         70.7489   62.6399   45.0072 Z9         2 LUT      0.196698
    148 C10        71.9603   63.1267   44.6543 Y1         2 LUT     -0.208611
    149 C11        72.6691   62.8798   43.4182 Y2         2 LUT      0.030784
    150 C12        73.9920   63.2082   43.2978 Y3         2 LUT     -0.220316
    151 C13        74.9118   63.1385   42.1170 Y4         2 LUT      0.215937
    152 C14        76.1452   63.7271   42.3609 Y5         2 LUT     -0.185793
    153 C15        77.1181   63.8200   41.2865 Y6         2 LUT     -0.057835
    154 C16        70.2399   60.4657   49.0280 Y7         2 LUT     -0.405615
    155 C17        70.3872   62.3179   50.6550 Y7         2 LUT     -0.405615
    156 C18        67.1591   64.6706   48.0097 Y9         2 LUT     -0.369639
    157 C19        69.9061   61.7110   44.1554 W1         2 LUT     -0.333362
    158 C20        74.4560   62.6244   40.7612 W2         2 LUT     -0.323439
    159 C21        88.4955   65.5586   35.6995 Z1         2 LUT      0.406104
    160 C22        89.1058   65.0439   34.4640 Z2         2 LUT     -0.404965
    161 C23        89.2312   65.9209   33.2486 Z3         2 LUT      0.391255
    162 O23        89.4887   65.0637   32.1488 S1         2 LUT     -0.528210
    163 C24        87.9432   66.8367   33.0244 W6         2 LUT     -0.258361
    164 C25        86.9109   66.9131   33.8748 Z5         2 LUT      0.133546
    165 C26        87.0197   66.1998   35.2807 W8         2 LUT     -0.147008
    166 C27        86.3777   67.0140   36.4380 Z7         2 LUT      0.023843
    167 C28        85.2853   66.4734   37.0112 Z8         2 LUT     -0.216987
    168 C29        84.6746   66.8726   38.3243 Z9         2 LUT      0.206524
    169 C30        83.6085   65.9751   38.7144 Y1         2 LUT     -0.215556
    170 C31        82.8180   65.9415   39.8851 Y2         2 LUT      0.025142
    171 C32        81.6493   65.2053   39.9487 Y3         2 LUT     -0.212209
    172 C33        80.5852   65.2736   40.9004 Y4         2 LUT      0.240937
    173 C34        79.3820   64.6386   40.7348 Y5         2 LUT     -0.218862
    174 C35        78.2519   64.4762   41.5338 Y6         2 LUT     -0.023547
    175 C36        89.5498   66.5746   36.3150 Y7         2 LUT     -0.393485
    176 C37        88.3103   64.4533   36.8002 Y7         2 LUT     -0.393485
    177 C38        85.6271   67.6576   33.6420 Y9         2 LUT     -0.387526
    178 C39        85.2553   68.0192   39.1452 W1         2 LUT     -0.322618
    179 C40        80.8948   65.9847   42.1741 W2         2 LUT     -0.358472
    180 H403       80.2114   65.8844   43.0037 R7         2 LUT      0.097720
    181 H402       81.7827   65.6035   42.6324 R7         2 LUT      0.097720
    182 H401       81.0440   67.0729   41.9929 R7         2 LUT      0.097720
    183 H393       85.4683   68.9083   38.5874 R4         2 LUT      0.082505
    184 H392       84.5367   68.3807   39.9103 R4         2 LUT      0.082505
    185 H391       86.1236   67.6979   39.7035 R4         2 LUT      0.082505
    186 H383       84.9293   66.9576   33.1048 R1         2 LUT      0.104030
    187 H382       84.9283   67.8029   34.5059 R1         2 LUT      0.104030
    188 H381       85.7057   68.5331   33.0080 R1         2 LUT      0.104030
    189 H373       87.7583   63.5676   36.4872 T4         2 LUT      0.089537
    190 H372       89.2060   63.9666   37.1030 T4         2 LUT      0.089537
    191 H371       87.8118   64.9245   37.6326 T4         2 LUT      0.089537
    192 H363       89.1722   67.1716   37.1554 T4         2 LUT      0.089537
    193 H362       90.5339   66.1237   36.6090 T4         2 LUT      0.089537
    194 H361       89.7996   67.3118   35.6392 T4         2 LUT      0.089537
    195 H222       90.1303   64.6158   34.7598 U2         2 LUT      0.127376
    196 H221       88.4852   64.2712   34.1079 U2         2 LUT      0.127376
    197 H203       74.6939   63.3978   40.0072 R7         2 LUT      0.087068
    198 H202       75.0993   61.8337   40.3871 R7         2 LUT      0.087068
    199 H201       73.3633   62.4969   40.5252 R7         2 LUT      0.087068
    200 H193       69.9582   61.9277   43.1134 R4         2 LUT      0.089716
    201 H192       70.0692   60.6549   44.4392 R4         2 LUT      0.089716
    202 H191       68.8640   61.9302   44.3102 R4         2 LUT      0.089716
    203 H183       66.3164   65.0719   48.5492 R1         2 LUT      0.094572
    204 H182       67.7971   65.4824   47.6541 R1         2 LUT      0.094572
    205 H181       66.8756   64.1666   47.1187 R1         2 LUT      0.094572
    206 H173       70.9960   61.6878   51.2344 T4         2 LUT      0.093752
    207 H172       70.9850   63.0817   50.1540 T4         2 LUT      0.093752
    208 H171       69.8383   62.9077   51.4024 T4         2 LUT      0.093752
    209 H163       69.6717   59.7538   48.4416 T4         2 LUT      0.093752
    210 H162       71.0910   60.8067   48.4105 T4         2 LUT      0.093752
    211 H161       70.6728   59.7991   49.8094 T4         2 LUT      0.093752
    212 HO3        66.7010   62.3833   52.8375 Q1         2 LUT      0.300121
    213 H8         70.9833   63.4903   46.8661 U7         2 LUT      0.080784
    214 H7         68.4700   61.7858   46.4677 U6         2 LUT      0.042190
    215 H42        66.4237   63.9365   50.2200 U5         2 LUT      0.145166
    216 H41        67.9733   64.1813   51.0690 U5         2 LUT      0.145166
    217 H35        78.2649   64.9743   42.4304 T3         2 LUT      0.077919
    218 H34        79.3320   64.0886   39.7677 T2         2 LUT      0.073626
    219 H32        81.4806   64.4706   39.1692 T1         2 LUT      0.092510
    220 H31        82.9097   66.7712   40.5368 U9         2 LUT      0.070048
    221 H30        83.3420   65.1159   38.0539 U8         2 LUT      0.085442
    222 H3         66.3138   61.6851   50.7097 U3         2 LUT     -0.031596
    223 H28        84.6560   65.8184   36.4008 U7         2 LUT      0.084728
    224 H27        86.9357   67.8734   36.8330 U6         2 LUT      0.087291
    225 H26        86.3584   65.3393   35.1181 Q6         2 LUT      0.075325
    226 H24        87.9011   67.4153   32.1018 Q5         2 LUT      0.094482
    227 H23        90.1614   66.5295   33.4835 U3         2 LUT     -0.024869
    228 H22        67.8445   60.6139   49.5342 U2         2 LUT      0.127376
    229 H21        68.5683   60.3658   51.0005 U2         2 LUT      0.127376
    230 H15        77.1390   63.3256   40.2823 T3         2 LUT      0.093200
    231 H14        76.1495   64.2571   43.2784 T2         2 LUT      0.068865
    232 H12        74.3855   63.8078   44.0610 T1         2 LUT      0.095507
    233 H11        72.2308   62.2909   42.6040 U9         2 LUT      0.068930
    234 H10        72.6441   63.5719   45.3891 U8         2 LUT      0.083911
    235 H1         89.6185   65.5516   31.3410 Q1         2 LUT      0.297311
@<TRIPOS>BOND
    1     6     1 1
    2     7     2 1
    3     8     3 1
    4     9     4 1
    5    11     4 1
    6    12     6 1
    7    13     9 1
    8    16     9 1
    9    25     5 1
   10    25    16 1
   11    26    10 1
   12    26    17 1
   13    27    18 1
   14    28    14 1
   15    28    19 1
   16    29    12 1
   17    30    13 1
   18    31    24 1
   19    32     1 1
   20    32    25 1
   21    33    21 1
   22    33    26 1
   23    34    22 1
   24    34    27 1
   25    35    23 1
   26    35    28 1
   27    36    12 1
   28    36    24 1
   29    37    13 1
   30    37    15 1
   31    38    31 1
   32    39    20 1
   33    39    32 1
   34    40     2 1
   35    40    33 1
   36    41     3 1
   37    41    34 1
   38    42     4 1
   39    42    35 1
   40    43    38 1
   41    44     5 1
   42    44    17 1
   43    44    39 1
   44    45    10 1
   45    45    18 1
   46    45    40 1
   47    46    19 1
   48    46    41 1
   49    47    14 1
   50    47    16 1
   51    47    42 1
   52    48    38 1
   53    49    48 1
   54    50    49 1
   55    51    50 1
   56    52    51 1
   57    53    51 1
   58    54    53 1
   59    55    54 1
   60    56    55 1
   61    57    56 1
   62    58    56 1
   63    59    58 1
   64    60    59 1
   65    61    60 1
   66    62    61 1
   67    63    61 1
   68    64    27 1
   69    64    46 1
   70    65     5 1
   71    65    10 1
   72    65    64 1
   73    65    14 1
   74    66    23 1
   75    67    23 1
   76    68    23 1
   77    69    22 1
   78    70    22 1
   79    71    22 1
   80    72    21 1
   81    73    21 1
   82    74    21 1
   83    75    20 1
   84    76    20 1
   85    77    20 1
   86    78    15 1
   87    79    15 1
   88    80    15 1
   89    81     8 1
   90    82     8 1
   91    83     8 1
   92    84     7 1
   93    85     7 1
   94    86     6 1
   95    87     6 1
   96    88     3 1
   97    89     3 1
   98    90     1 1
   99    91     1 1
  100    92    63 1
  101    93    63 1
  102    94    63 1
  103    95    62 1
  104    96    62 1
  105    97    62 1
  106    98    60 1
  107    99    60 1
  108   100    59 1
  109   101    59 1
  110   102    58 1
  111   103    58 1
  112   104    57 1
  113   105    57 1
  114   106    57 1
  115   107    55 1
  116   108    55 1
  117   109    54 1
  118   110    54 1
  119   111    53 1
  120   112    53 1
  121   113    19 1
  122   114    18 1
  123   115    17 1
  124   116     9 1
  125   117     2 1
  126   118    52 1
  127   119    52 1
  128   120    52 1
  129   121    51 1
  130   122    50 1
  131   123    50 1
  132   124    49 1
  133   125    49 1
  134   126    48 1
  135   127    48 1
  136   128    43 1
  137   129    43 1
  138   130    43 1
  139   131    39 1
  140   132    32 1
  141   133    31 1
  142   134    61 1
  143   135    56 1
  144   136    24 1
  145   137    24 1
  146   139   138 1
  147   140   139 1
  148   141   140 1
  149   142   140 1
  150   143   142 1
  151   144   138 1
  152   144   143 1
  153   145   144 1
  154   146   145 1
  155   147   146 1
  156   148   147 1
  157   149   148 1
  158   150   149 1
  159   151   150 1
  160   152   151 1
  161   153   152 1
  162   154   138 1
  163   155   138 1
  164   156   143 1
  165   157   147 1
  166   158   151 1
  167   160   159 1
  168   161   160 1
  169   162   161 1
  170   163   161 1
  171   164   163 1
  172   165   159 1
  173   165   164 1
  174   166   165 1
  175   167   166 1
  176   168   167 1
  177   169   168 1
  178   170   169 1
  179   171   170 1
  180   172   171 1
  181   173   172 1
  182   174   153 1
  183   174   173 1
  184   175   159 1
  185   176   159 1
  186   177   164 1
  187   178   168 1
  188   179   172 1
  189   180   179 1
  190   181   179 1
  191   182   179 1
  192   183   178 1
  193   184   178 1
  194   185   178 1
  195   186   177 1
  196   187   177 1
  197   188   177 1
  198   189   176 1
  199   190   176 1
  200   191   176 1
  201   192   175 1
  202   193   175 1
  203   194   175 1
  204   195   160 1
  205   196   160 1
  206   197   158 1
  207   198   158 1
  208   199   158 1
  209   200   157 1
  210   201   157 1
  211   202   157 1
  212   203   156 1
  213   204   156 1
  214   205   156 1
  215   206   155 1
  216   207   155 1
  217   208   155 1
  218   209   154 1
  219   210   154 1
  220   211   154 1
  221   212   141 1
  222   213   146 1
  223   214   145 1
  224   215   142 1
  225   216   142 1
  226   217   174 1
  227   218   173 1
  228   219   171 1
  229   220   170 1
  230   221   169 1
  231   222   140 1
  232   223   167 1
  233   224   166 1
  234   225   165 1
  235   226   163 1
  236   227   161 1
  237   228   139 1
  238   229   139 1
  239   230   153 1
  240   231   152 1
  241   232   150 1
  242   233   149 1
  243   234   148 1
  244   235   162 1
  245   65    153 1
  246   65    174 1
@<TRIPOS>SUBSTRUCTURE
      1 CLA               1 ****               0 ****  **** 
      2 LUT             138 ****               0 ****  **** 
