@<TRIPOS>MOLECULE
Cpptraj generated mol2 file.
  235   246     2     0     0
SMALL
USER_CHARGES


@<TRIPOS>ATOM
      1 CAA        77.4946   57.3383   33.4562 a2         1 CLA     -0.055900
      2 CAB        77.4908   61.3149   42.3947 c8         1 CLA     -0.148500
      3 CAC        70.5338   57.1261   41.9405 a2         1 CLA     -0.012600
      4 CAD        73.1600   55.0120   34.6021 ck         1 CLA      0.398800
      5 NA         76.3484   58.1121   36.7629 ns         1 CLA     -0.225500
      6 CBA        78.7021   56.9493   32.7036 a2         1 CLA     -0.135000
      7 CBB        78.7079   61.1659   43.0888 c0         1 CLA     -0.395200
      8 CBC        70.6503   55.5941   41.8975 a3         1 CLA     -0.037700
      9 CBD        74.7152   55.3396   34.4060 a1         1 CLA     -0.053900
     10 NB         76.1588   59.6399   39.3718 nm         1 CLA     -0.295700
     11 OBD        72.5175   54.2561   33.8970 o2         1 CLA     -0.494600
     12 CGA        78.9020   55.4292   32.6071 c4         1 CLA      0.827000
     13 CGD        75.4495   54.0900   34.6056 c4         1 CLA      0.655300
     14 ND         73.4849   57.3144   37.3682 nm         1 CLA     -0.291600
     15 CED        75.6456   52.2172   36.2288 a3         1 CLA      0.005400
     16 CHA        75.0272   56.4493   35.5235 cs         1 CLA     -0.123800
     17 CHB        78.0709   59.3515   37.7947 aa         1 CLA     -0.291900
     18 CHC        74.8502   59.6974   41.4626 aa         1 CLA     -0.090400
     19 CHD        71.6207   57.1501   38.9138 aa         1 CLA     -0.052000
     20 CMA        79.8586   57.3670   36.2900 a3         1 CLA     -0.230700
     21 CMB        79.5959   61.2050   39.8324 a3         1 CLA     -0.180800
     22 CMC        72.6104   59.1369   43.5846 a3         1 CLA     -0.134000
     23 CMD        70.3431   55.2621   36.7034 a3         1 CLA     -0.141100
     24 C1         80.0983   53.5802   33.7508 a2         1 CLA      0.023000
     25 C1A        76.2203   57.1818   35.7559 ac         1 CLA     -0.015100
     26 C1B        77.4218   59.9004   38.9752 cr         1 CLA      0.054700
     27 C1C        73.6066   59.0738   41.1010 cn         1 CLA     -0.005600
     28 C1D        72.2310   56.7581   37.7228 ap         1 CLA     -0.047300
     29 O1A        78.7349   54.8300   31.5495 o2         1 CLA     -0.610800
     30 O1D        76.1444   53.5068   33.8198 o2         1 CLA     -0.558200
     31 C2         80.8826   53.3525   35.0162 c8         1 CLA     -0.325100
     32 C2A        77.5592   57.0161   34.9933 a1         1 CLA      0.098600
     33 C2B        78.1762   60.6731   40.0162 cb         1 CLA      0.088500
     34 C2C        72.5729   58.6931   42.1035 cb         1 CLA      0.053700
     35 C2D        71.7272   55.8480   36.7267 cb         1 CLA      0.058900
     36 O2A        79.4945   54.9392   33.7591 o1         1 CLA     -0.437200
     37 O2D        75.1695   53.5573   35.8339 o1         1 CLA     -0.357600
     38 C3         81.5693   52.2107   35.3693 c5         1 CLA      0.031200
     39 C3A        78.4928   57.9855   35.7406 a1         1 CLA      0.166800
     40 C3B        77.3031   60.7109   41.0757 cb         1 CLA      0.035000
     41 C3C        71.6092   57.9533   41.3628 cb         1 CLA     -0.089900
     42 C3D        72.7844   55.7382   35.8341 cb         1 CLA     -0.035900
     43 C4         80.9486   51.1184   36.3032 a3         1 CLA     -0.053300
     44 C4A        77.5703   58.5363   36.8276 ac         1 CLA      0.001800
     45 C4B        76.0205   59.9983   40.7443 cn         1 CLA     -0.020900
     46 C4C        72.0697   57.9664   39.9678 cr         1 CLA     -0.044400
     47 C4D        73.8116   56.5930   36.2653 c6         1 CLA     -0.046000
     48 C5         83.0669   52.0291   35.1469 a2         1 CLA     -0.070400
     49 C6         83.9639   53.1438   35.6166 a2         1 CLA      0.043900
     50 C7         83.8350   53.4128   37.1634 a2         1 CLA     -0.150000
     51 C8         84.8016   54.6361   37.6570 a1         1 CLA      0.064200
     52 C9         86.2738   54.2867   37.5277 a3         1 CLA     -0.259300
     53 C10        84.4505   55.1299   39.0707 a2         1 CLA     -0.071900
     54 C11        82.9429   55.4239   39.3389 a2         1 CLA      0.014500
     55 C12        82.8510   56.0446   40.7632 a2         1 CLA     -0.112100
     56 C13        81.4511   56.2664   41.3772 a1         1 CLA      0.089200
     57 C14        80.6066   57.1501   40.4156 a3         1 CLA     -0.239100
     58 C15        81.4824   56.7860   42.8406 a2         1 CLA     -0.102200
     59 C16        81.9213   58.2728   43.1900 a2         1 CLA      0.023900
     60 C17        82.1272   58.5088   44.7077 a2         1 CLA     -0.105700
     61 C18        82.3851   59.9929   45.0135 a1         1 CLA      0.206800
     62 C19        82.4747   60.2184   46.5407 a3         1 CLA     -0.280100
     63 C20        83.7481   60.3707   44.3463 a3         1 CLA     -0.280100
     64 NC         73.3034   58.5894   39.8836 nx         1 CLA     -0.309200
     65 MG         74.7542   58.5337   38.1700 mg         1 CLA      0.895000
     66 HMD3       70.2142   55.0865   37.7471 dc         1 CLA      0.064300
     67 HMD2       69.5497   55.9291   36.4011 dc         1 CLA      0.064300
     68 HMD1       70.2939   54.3378   36.1145 dc         1 CLA      0.064300
     69 HMC3       72.3568   58.3128   44.1838 dc         1 CLA      0.052100
     70 HMC2       73.5610   59.3641   43.9883 dc         1 CLA      0.052100
     71 HMC1       71.8558   59.9047   43.7741 dc         1 CLA      0.052100
     72 HMB3       80.3847   60.5185   40.1346 dc         1 CLA      0.063600
     73 HMB2       79.9330   61.4864   38.8262 dc         1 CLA      0.063600
     74 HMB1       79.6526   62.1558   40.4450 dc         1 CLA      0.063600
     75 HMA3       80.5320   58.1232   36.7383 dc         1 CLA      0.058300
     76 HMA2       79.6261   56.4634   36.8563 dc         1 CLA      0.058300
     77 HMA1       80.3969   56.8608   35.4896 dc         1 CLA      0.058300
     78 HED3       76.0005   52.0239   37.2868 dc         1 CLA      0.079300
     79 HED2       74.8458   51.5231   35.9237 dc         1 CLA      0.079300
     80 HED1       76.5358   52.0072   35.6659 dc         1 CLA      0.079300
     81 HBC3       70.3768   55.1258   42.8690 dc         1 CLA      0.016300
     82 HBC2       70.0120   55.1177   41.1903 dc         1 CLA      0.016300
     83 HBC1       71.5899   55.1261   41.6254 dc         1 CLA      0.016300
     84 HBB2       78.9959   61.6132   44.0881 da         1 CLA      0.183000
     85 HBB1       79.5490   60.6032   42.6322 da         1 CLA      0.183000
     86 HBA2       78.6159   57.3875   31.7007 dc         1 CLA      0.029400
     87 HBA1       79.6246   57.4766   33.1138 dc         1 CLA      0.029400
     88 HAC2       70.4224   57.2651   43.0334 dc         1 CLA      0.029300
     89 HAC1       69.5767   57.3913   41.5655 dc         1 CLA      0.029300
     90 HAA2       76.5717   56.8047   33.1086 dc         1 CLA      0.028700
     91 HAA1       77.2859   58.3949   33.3010 dc         1 CLA      0.028700
     92 H203       84.5838   59.7121   44.4963 dc         1 CLA      0.065600
     93 H202       83.7017   60.4395   43.2402 dc         1 CLA      0.065600
     94 H201       83.9550   61.4096   44.6285 dc         1 CLA      0.065600
     95 H193       83.1794   59.5203   46.8971 dc         1 CLA      0.065600
     96 H192       82.7907   61.2582   46.8431 dc         1 CLA      0.065600
     97 H191       81.4546   60.0081   46.8114 dc         1 CLA      0.065600
     98 H172       81.1662   58.3106   45.1398 dc         1 CLA      0.027600
     99 H171       82.9979   57.8909   44.9754 dc         1 CLA      0.027600
    100 H162       82.8543   58.5253   42.6160 dc         1 CLA      0.002900
    101 H161       81.1452   58.9332   42.8232 dc         1 CLA      0.002900
    102 H152       80.4407   56.7221   43.2795 dc         1 CLA      0.029100
    103 H151       82.1010   56.1300   43.4292 dc         1 CLA      0.029100
    104 H143       81.0295   58.1053   40.2672 dc         1 CLA      0.063600
    105 H142       80.4233   56.6286   39.4834 dc         1 CLA      0.063600
    106 H141       79.6294   57.2477   41.0075 dc         1 CLA      0.063600
    107 H122       83.3230   55.3351   41.4617 dc         1 CLA      0.032500
    108 H121       83.4578   56.9851   40.7178 dc         1 CLA      0.032500
    109 H112       82.6372   56.1804   38.6416 dc         1 CLA      0.006600
    110 H111       82.3481   54.5411   39.2633 dc         1 CLA      0.006600
    111 H102       84.6741   54.3576   39.7853 dc         1 CLA      0.024100
    112 H101       85.0531   56.0434   39.2482 dc         1 CLA      0.024100
    113 HHD        70.6891   56.6054   39.2178 da         1 CLA      0.174300
    114 HHC        75.0119   59.9042   42.4565 da         1 CLA      0.136800
    115 HHB        79.0551   59.7430   37.7567 da         1 CLA      0.138300
    116 HBD        74.8412   55.8024   33.4437 dc         1 CLA      0.107700
    117 HAB        76.6258   61.8463   42.8311 da         1 CLA      0.155200
    118 H93        86.6073   53.4764   38.1625 dc         1 CLA      0.069500
    119 H92        86.7028   54.0932   36.4975 dc         1 CLA      0.069500
    120 H91        86.7160   55.2287   37.8281 dc         1 CLA      0.069500
    121 H8         84.6648   55.5348   37.0545 dc         1 CLA      0.029300
    122 H72        82.8225   53.6618   37.4632 dc         1 CLA      0.044400
    123 H71        84.1480   52.5078   37.7748 dc         1 CLA      0.044400
    124 H62        84.9751   52.7637   35.3998 dc         1 CLA      0.015600
    125 H61        83.9196   54.1069   35.1225 dc         1 CLA      0.015600
    126 H52        83.4411   51.2563   35.7538 dc         1 CLA      0.033200
    127 H51        83.2100   51.7144   34.1591 dc         1 CLA      0.033200
    128 H43        79.8785   51.2101   36.3449 dc         1 CLA      0.037000
    129 H42        81.1809   50.1391   35.8671 dc         1 CLA      0.037000
    130 H41        81.3276   51.2191   37.2968 dc         1 CLA      0.037000
    131 H3A        78.8493   58.7895   35.1532 dc         1 CLA      0.041100
    132 H2A        77.8334   55.9807   35.2040 dc         1 CLA      0.083100
    133 H2         80.8781   54.1924   35.7434 da         1 CLA      0.180900
    134 H18        81.6126   60.6703   44.5656 dc         1 CLA     -0.003900
    135 H13        80.8803   55.3326   41.5819 dc         1 CLA      0.019700
    136 H12        79.4619   52.7354   33.4817 dc         1 CLA      0.120400
    137 H11        80.8819   53.6081   32.9482 dc         1 CLA      0.120400
    138 C1         67.5027   60.8599   49.0058 Z1         2 LUT      0.509236
    139 C2         66.1254   60.7571   49.7741 Z2         2 LUT     -0.434695
    140 C3         65.4481   62.0819   50.0679 Z3         2 LUT      0.437453
    141 O3         65.9759   62.6324   51.2177 S1         2 LUT     -0.547129
    142 C4         65.5381   63.0533   48.9135 Z4         2 LUT     -0.468603
    143 C5         66.4283   62.7132   47.6992 Z5         2 LUT      0.279246
    144 C6         67.3640   61.7343   47.7429 Z6         2 LUT     -0.305473
    145 C7         68.0182   61.1464   46.5296 Z7         2 LUT      0.069402
    146 C8         68.8918   61.7322   45.6900 Z8         2 LUT     -0.191631
    147 C9         69.3708   61.3112   44.3057 Z9         2 LUT      0.196698
    148 C10        70.2277   62.1425   43.6114 Y1         2 LUT     -0.208611
    149 C11        70.8326   61.9398   42.2524 Y2         2 LUT      0.030784
    150 C12        71.7908   62.8466   41.8471 Y3         2 LUT     -0.220316
    151 C13        72.7570   62.6862   40.7923 Y4         2 LUT      0.215937
    152 C14        73.9808   63.2867   40.8076 Y5         2 LUT     -0.185793
    153 C15        75.1485   63.3349   40.0134 Y6         2 LUT     -0.057835
    154 C16        68.1229   59.4372   48.8198 Y7         2 LUT     -0.405615
    155 C17        68.6326   61.4688   49.9740 Y7         2 LUT     -0.405615
    156 C18        65.9906   63.4542   46.4333 Y9         2 LUT     -0.369639
    157 C19        68.7307   60.0814   43.7197 W1         2 LUT     -0.333362
    158 C20        72.3459   61.8778   39.5230 W2         2 LUT     -0.323439
    159 C21        86.6095   64.8529   33.9144 Z1         2 LUT      0.406104
    160 C22        87.3855   64.2840   32.6465 Z2         2 LUT     -0.404965
    161 C23        87.5241   65.3943   31.6410 Z3         2 LUT      0.391255
    162 O23        88.2647   64.8783   30.5023 S1         2 LUT     -0.528210
    163 C24        86.2279   66.0417   31.3110 W6         2 LUT     -0.258361
    164 C25        85.1629   65.9817   32.0720 Z5         2 LUT      0.133546
    165 C26        85.1642   65.2537   33.3808 W8         2 LUT     -0.147008
    166 C27        84.2189   65.7807   34.4341 Z7         2 LUT      0.023843
    167 C28        83.3733   65.1051   35.2725 Z8         2 LUT     -0.216987
    168 C29        82.6469   65.6624   36.4150 Z9         2 LUT      0.206524
    169 C30        81.6362   65.0016   36.9555 Y1         2 LUT     -0.215556
    170 C31        80.7564   65.3300   38.0494 Y2         2 LUT      0.025142
    171 C32        79.5647   64.6575   38.2939 Y3         2 LUT     -0.212209
    172 C33        78.5030   64.9775   39.2469 Y4         2 LUT      0.240937
    173 C34        77.3296   64.2309   39.3154 Y5         2 LUT     -0.218862
    174 C35        76.1633   64.2440   40.2082 Y6         2 LUT     -0.023547
    175 C36        87.4770   65.8888   34.6833 Y7         2 LUT     -0.393485
    176 C37        86.5340   63.6616   35.0422 Y7         2 LUT     -0.393485
    177 C38        83.9178   66.7047   31.6290 Y9         2 LUT     -0.387526
    178 C39        82.9868   67.0229   36.9727 W1         2 LUT     -0.322618
    179 C40        78.6463   66.2664   39.9788 W2         2 LUT     -0.358472
    180 H403       78.4843   67.1338   39.3394 R7         2 LUT      0.097720
    181 H402       78.0846   66.2846   40.9249 R7         2 LUT      0.097720
    182 H401       79.6642   66.4634   40.3609 R7         2 LUT      0.097720
    183 H393       83.3995   67.0492   38.0257 R4         2 LUT      0.082505
    184 H392       83.7957   67.6126   36.4362 R4         2 LUT      0.082505
    185 H391       82.1284   67.6500   36.9900 R4         2 LUT      0.082505
    186 H383       82.9924   66.1178   31.4998 R1         2 LUT      0.104030
    187 H382       83.6105   67.4468   32.4489 R1         2 LUT      0.104030
    188 H381       83.9375   67.1845   30.7006 R1         2 LUT      0.104030
    189 H373       85.8912   62.9282   34.5583 T4         2 LUT      0.089537
    190 H372       87.5526   63.2088   35.2235 T4         2 LUT      0.089537
    191 H371       86.0943   63.9477   35.9830 T4         2 LUT      0.089537
    192 H363       88.5551   65.5934   34.7987 T4         2 LUT      0.089537
    193 H362       87.4455   66.7961   34.0855 T4         2 LUT      0.089537
    194 H361       87.1180   66.0577   35.6345 T4         2 LUT      0.089537
    195 H222       88.3384   63.8708   33.0723 U2         2 LUT      0.127376
    196 H221       86.8943   63.4435   32.1694 U2         2 LUT      0.127376
    197 H203       71.4548   61.3265   39.7481 R7         2 LUT      0.087068
    198 H202       72.2367   62.4849   38.6506 R7         2 LUT      0.087068
    199 H201       73.1114   61.2132   39.1939 R7         2 LUT      0.087068
    200 H193       69.4710   59.3320   43.5393 R4         2 LUT      0.089716
    201 H192       67.9299   59.6764   44.2639 R4         2 LUT      0.089716
    202 H191       68.2826   60.3140   42.7439 R4         2 LUT      0.089716
    203 H183       66.6423   63.2299   45.6045 R1         2 LUT      0.094572
    204 H182       64.9825   63.1261   46.1236 R1         2 LUT      0.094572
    205 H181       65.9950   64.5527   46.6267 R1         2 LUT      0.094572
    206 H173       68.6347   61.0413   50.9770 T4         2 LUT      0.093752
    207 H172       69.6126   61.3045   49.5921 T4         2 LUT      0.093752
    208 H171       68.3895   62.5418   50.1224 T4         2 LUT      0.093752
    209 H163       69.1188   59.4980   48.2551 T4         2 LUT      0.093752
    210 H162       68.3104   58.8769   49.6950 T4         2 LUT      0.093752
    211 H161       67.5079   58.7965   48.2318 T4         2 LUT      0.093752
    212 HO3        65.7181   62.0747   51.9919 Q1         2 LUT      0.300121
    213 H8         69.1426   62.7584   46.0004 U7         2 LUT      0.080784
    214 H7         67.6351   60.1707   46.3826 U6         2 LUT      0.042190
    215 H42        64.5721   63.1942   48.5645 U5         2 LUT      0.145166
    216 H41        65.7535   64.0984   49.1479 U5         2 LUT      0.145166
    217 H35        76.0476   64.8793   41.1029 T3         2 LUT      0.077919
    218 H34        77.3161   63.4466   38.5645 T2         2 LUT      0.073626
    219 H32        79.3667   63.9115   37.4982 T1         2 LUT      0.092510
    220 H31        81.0514   66.1731   38.6437 U9         2 LUT      0.070048
    221 H30        81.3537   64.0829   36.5814 U8         2 LUT      0.085442
    222 H3         64.3693   61.8700   50.2371 U3         2 LUT     -0.031596
    223 H28        83.1513   64.0121   35.0132 U7         2 LUT      0.084728
    224 H27        84.4325   66.7702   34.6291 U6         2 LUT      0.087291
    225 H26        84.8553   64.2057   33.1180 Q6         2 LUT      0.075325
    226 H24        86.0824   66.6288   30.3872 Q5         2 LUT      0.094482
    227 H23        88.0613   66.1513   32.1152 U3         2 LUT     -0.024869
    228 H22        65.4710   60.0557   49.2169 U2         2 LUT      0.127376
    229 H21        66.2819   60.1075   50.6791 U2         2 LUT      0.127376
    230 H15        75.2203   62.5671   39.1552 T3         2 LUT      0.093200
    231 H14        73.9875   64.1045   41.6091 T2         2 LUT      0.068865
    232 H12        72.0627   63.6744   42.4842 T1         2 LUT      0.095507
    233 H11        70.6657   60.9889   41.7794 U9         2 LUT      0.068930
    234 H10        70.6386   63.0197   44.1490 U8         2 LUT      0.083911
    235 H1         87.7245   64.3857   29.8578 Q1         2 LUT      0.297311
@<TRIPOS>BOND
    1     6     1 1
    2     7     2 1
    3     8     3 1
    4     9     4 1
    5    11     4 1
    6    12     6 1
    7    13     9 1
    8    16     9 1
    9    25     5 1
   10    25    16 1
   11    26    10 1
   12    26    17 1
   13    27    18 1
   14    28    14 1
   15    28    19 1
   16    29    12 1
   17    30    13 1
   18    31    24 1
   19    32     1 1
   20    32    25 1
   21    33    21 1
   22    33    26 1
   23    34    22 1
   24    34    27 1
   25    35    23 1
   26    35    28 1
   27    36    12 1
   28    36    24 1
   29    37    13 1
   30    37    15 1
   31    38    31 1
   32    39    20 1
   33    39    32 1
   34    40     2 1
   35    40    33 1
   36    41     3 1
   37    41    34 1
   38    42     4 1
   39    42    35 1
   40    43    38 1
   41    44     5 1
   42    44    17 1
   43    44    39 1
   44    45    10 1
   45    45    18 1
   46    45    40 1
   47    46    19 1
   48    46    41 1
   49    47    14 1
   50    47    16 1
   51    47    42 1
   52    48    38 1
   53    49    48 1
   54    50    49 1
   55    51    50 1
   56    52    51 1
   57    53    51 1
   58    54    53 1
   59    55    54 1
   60    56    55 1
   61    57    56 1
   62    58    56 1
   63    59    58 1
   64    60    59 1
   65    61    60 1
   66    62    61 1
   67    63    61 1
   68    64    27 1
   69    64    46 1
   70    65     5 1
   71    65    10 1
   72    65    64 1
   73    65    14 1
   74    66    23 1
   75    67    23 1
   76    68    23 1
   77    69    22 1
   78    70    22 1
   79    71    22 1
   80    72    21 1
   81    73    21 1
   82    74    21 1
   83    75    20 1
   84    76    20 1
   85    77    20 1
   86    78    15 1
   87    79    15 1
   88    80    15 1
   89    81     8 1
   90    82     8 1
   91    83     8 1
   92    84     7 1
   93    85     7 1
   94    86     6 1
   95    87     6 1
   96    88     3 1
   97    89     3 1
   98    90     1 1
   99    91     1 1
  100    92    63 1
  101    93    63 1
  102    94    63 1
  103    95    62 1
  104    96    62 1
  105    97    62 1
  106    98    60 1
  107    99    60 1
  108   100    59 1
  109   101    59 1
  110   102    58 1
  111   103    58 1
  112   104    57 1
  113   105    57 1
  114   106    57 1
  115   107    55 1
  116   108    55 1
  117   109    54 1
  118   110    54 1
  119   111    53 1
  120   112    53 1
  121   113    19 1
  122   114    18 1
  123   115    17 1
  124   116     9 1
  125   117     2 1
  126   118    52 1
  127   119    52 1
  128   120    52 1
  129   121    51 1
  130   122    50 1
  131   123    50 1
  132   124    49 1
  133   125    49 1
  134   126    48 1
  135   127    48 1
  136   128    43 1
  137   129    43 1
  138   130    43 1
  139   131    39 1
  140   132    32 1
  141   133    31 1
  142   134    61 1
  143   135    56 1
  144   136    24 1
  145   137    24 1
  146   139   138 1
  147   140   139 1
  148   141   140 1
  149   142   140 1
  150   143   142 1
  151   144   138 1
  152   144   143 1
  153   145   144 1
  154   146   145 1
  155   147   146 1
  156   148   147 1
  157   149   148 1
  158   150   149 1
  159   151   150 1
  160   152   151 1
  161   153   152 1
  162   154   138 1
  163   155   138 1
  164   156   143 1
  165   157   147 1
  166   158   151 1
  167   160   159 1
  168   161   160 1
  169   162   161 1
  170   163   161 1
  171   164   163 1
  172   165   159 1
  173   165   164 1
  174   166   165 1
  175   167   166 1
  176   168   167 1
  177   169   168 1
  178   170   169 1
  179   171   170 1
  180   172   171 1
  181   173   172 1
  182   174   153 1
  183   174   173 1
  184   175   159 1
  185   176   159 1
  186   177   164 1
  187   178   168 1
  188   179   172 1
  189   180   179 1
  190   181   179 1
  191   182   179 1
  192   183   178 1
  193   184   178 1
  194   185   178 1
  195   186   177 1
  196   187   177 1
  197   188   177 1
  198   189   176 1
  199   190   176 1
  200   191   176 1
  201   192   175 1
  202   193   175 1
  203   194   175 1
  204   195   160 1
  205   196   160 1
  206   197   158 1
  207   198   158 1
  208   199   158 1
  209   200   157 1
  210   201   157 1
  211   202   157 1
  212   203   156 1
  213   204   156 1
  214   205   156 1
  215   206   155 1
  216   207   155 1
  217   208   155 1
  218   209   154 1
  219   210   154 1
  220   211   154 1
  221   212   141 1
  222   213   146 1
  223   214   145 1
  224   215   142 1
  225   216   142 1
  226   217   174 1
  227   218   173 1
  228   219   171 1
  229   220   170 1
  230   221   169 1
  231   222   140 1
  232   223   167 1
  233   224   166 1
  234   225   165 1
  235   226   163 1
  236   227   161 1
  237   228   139 1
  238   229   139 1
  239   230   153 1
  240   231   152 1
  241   232   150 1
  242   233   149 1
  243   234   148 1
  244   235   162 1
  245   65    153 1
  246   65    174 1
@<TRIPOS>SUBSTRUCTURE
      1 CLA               1 ****               0 ****  **** 
      2 LUT             138 ****               0 ****  **** 
