@<TRIPOS>MOLECULE
Cpptraj generated mol2 file.
  235   246     2     0     0
SMALL
USER_CHARGES


@<TRIPOS>ATOM
      1 CAA        77.4014   57.9713   34.3936 a2         1 CLA     -0.055900
      2 CAB        77.4117   61.7376   43.6425 c8         1 CLA     -0.148500
      3 CAC        70.8096   57.1457   43.0695 a2         1 CLA     -0.012600
      4 CAD        73.6692   55.1642   35.8486 ck         1 CLA      0.398800
      5 NA         76.5289   58.5186   37.8408 ns         1 CLA     -0.225500
      6 CBA        78.5918   58.1008   33.4402 a2         1 CLA     -0.135000
      7 CBB        77.3211   60.8192   44.6555 c0         1 CLA     -0.395200
      8 CBC        71.0293   55.6170   43.0725 a3         1 CLA     -0.037700
      9 CBD        75.1007   55.7276   35.5189 a1         1 CLA     -0.053900
     10 NB         76.3131   60.0586   40.4515 nm         1 CLA     -0.295700
     11 OBD        73.0565   54.3760   35.1354 o2         1 CLA     -0.494600
     12 CGA        79.3687   56.8512   33.1043 c4         1 CLA      0.827000
     13 CGD        76.0899   54.6869   35.1223 c4         1 CLA      0.655300
     14 ND         73.8955   57.3661   38.6070 nm         1 CLA     -0.291600
     15 CED        77.2304   52.7393   35.9354 a3         1 CLA      0.005400
     16 CHA        75.3933   56.7807   36.6714 cs         1 CLA     -0.123800
     17 CHB        78.1466   60.0279   38.8795 aa         1 CLA     -0.291900
     18 CHC        74.9187   60.2665   42.4936 aa         1 CLA     -0.090400
     19 CHD        72.0659   57.1024   40.2565 aa         1 CLA     -0.052000
     20 CMA        79.8802   58.2826   36.9663 a3         1 CLA     -0.230700
     21 CMB        79.5083   62.0384   41.2048 a3         1 CLA     -0.180800
     22 CMC        72.7262   59.4718   44.6164 a3         1 CLA     -0.134000
     23 CMD        70.9524   55.1268   38.0629 a3         1 CLA     -0.141100
     24 C1         80.6593   55.1396   34.2464 a2         1 CLA      0.023000
     25 C1A        76.4991   57.6411   36.7874 ac         1 CLA     -0.015100
     26 C1B        77.5937   60.3957   40.0853 cr         1 CLA      0.054700
     27 C1C        73.8198   59.3390   42.2716 cn         1 CLA     -0.005600
     28 C1D        72.7211   56.7904   39.0336 ap         1 CLA     -0.047300
     29 O1A        79.3381   56.1753   32.0510 o2         1 CLA     -0.610800
     30 O1D        76.6165   54.5261   34.0039 o2         1 CLA     -0.558200
     31 C2         81.1375   54.8443   35.7005 c8         1 CLA     -0.325100
     32 C2A        77.6813   57.7219   35.9081 a1         1 CLA      0.098600
     33 C2B        78.2006   61.2280   41.1670 cb         1 CLA      0.088500
     34 C2C        72.7411   58.9216   43.1957 cb         1 CLA      0.053700
     35 C2D        72.2020   55.8889   38.0256 cb         1 CLA      0.058900
     36 O2A        80.1433   56.4744   34.1807 o1         1 CLA     -0.437200
     37 O2D        76.2571   53.7961   36.1711 o1         1 CLA     -0.357600
     38 C3         81.9584   53.7959   36.1051 c5         1 CLA      0.031200
     39 C3A        78.4883   58.9192   36.6024 a1         1 CLA      0.166800
     40 C3B        77.3102   61.2245   42.2340 cb         1 CLA      0.035000
     41 C3C        71.9684   57.9798   42.5394 cb         1 CLA     -0.089900
     42 C3D        73.2479   55.8412   37.0886 cb         1 CLA     -0.035900
     43 C4         81.2933   52.5351   36.5483 a3         1 CLA     -0.053300
     44 C4A        77.6825   59.2308   37.8088 ac         1 CLA      0.001800
     45 C4B        76.0651   60.5849   41.7157 cn         1 CLA     -0.020900
     46 C4C        72.5840   57.9085   41.2547 cr         1 CLA     -0.044400
     47 C4D        74.2660   56.7032   37.4941 c6         1 CLA     -0.046000
     48 C5         83.4039   53.6961   35.5382 a2         1 CLA     -0.070400
     49 C6         84.3345   54.9358   35.5938 a2         1 CLA      0.043900
     50 C7         84.6779   55.3678   37.0072 a2         1 CLA     -0.150000
     51 C8         85.4476   56.7884   37.1364 a1         1 CLA      0.064200
     52 C9         86.9788   56.6462   36.7235 a3         1 CLA     -0.259300
     53 C10        85.3281   57.4751   38.5214 a2         1 CLA     -0.071900
     54 C11        83.9004   57.6622   39.0506 a2         1 CLA      0.014500
     55 C12        83.8617   58.5912   40.2690 a2         1 CLA     -0.112100
     56 C13        84.6695   58.1281   41.5524 a1         1 CLA      0.089200
     57 C14        84.2736   56.7443   42.1548 a3         1 CLA     -0.239100
     58 C15        84.7417   59.1855   42.7043 a2         1 CLA     -0.102200
     59 C16        83.4139   59.3391   43.5602 a2         1 CLA      0.023900
     60 C17        83.4757   60.4873   44.6391 a2         1 CLA     -0.105700
     61 C18        82.1710   60.7550   45.3721 a1         1 CLA      0.206800
     62 C19        82.3694   61.8504   46.4591 a3         1 CLA     -0.280100
     63 C20        80.9301   61.0796   44.5415 a3         1 CLA     -0.280100
     64 NC         73.7167   58.6450   41.0948 nx         1 CLA     -0.309200
     65 MG         75.0036   58.7707   39.4123 mg         1 CLA      0.895000
     66 HMD3       71.0086   54.4041   38.9030 dc         1 CLA      0.064300
     67 HMD2       70.0287   55.6963   38.0006 dc         1 CLA      0.064300
     68 HMD1       70.8278   54.4600   37.1911 dc         1 CLA      0.064300
     69 HMC3       73.5507   58.9464   45.0538 dc         1 CLA      0.052100
     70 HMC2       72.9069   60.5320   44.6947 dc         1 CLA      0.052100
     71 HMC1       71.8035   59.1595   45.1244 dc         1 CLA      0.052100
     72 HMB3       80.2561   61.3485   41.6082 dc         1 CLA      0.063600
     73 HMB2       79.8326   62.4631   40.3026 dc         1 CLA      0.063600
     74 HMB1       79.3510   62.8413   41.9103 dc         1 CLA      0.063600
     75 HMA3       80.5001   58.2113   36.0570 dc         1 CLA      0.058300
     76 HMA2       80.4623   58.9146   37.6446 dc         1 CLA      0.058300
     77 HMA1       79.6899   57.2736   37.4795 dc         1 CLA      0.058300
     78 HED3       76.9392   51.8814   35.3686 dc         1 CLA      0.079300
     79 HED2       78.1204   53.3035   35.5637 dc         1 CLA      0.079300
     80 HED1       77.5086   52.2967   36.8920 dc         1 CLA      0.079300
     81 HBC3       71.0086   55.2212   42.0448 dc         1 CLA      0.016300
     82 HBC2       71.9147   55.2920   43.6041 dc         1 CLA      0.016300
     83 HBC1       70.2644   55.0289   43.5761 dc         1 CLA      0.016300
     84 HBB2       77.4792   61.1376   45.7096 da         1 CLA      0.183000
     85 HBB1       77.1483   59.7258   44.5019 da         1 CLA      0.183000
     86 HBA2       78.1690   58.5968   32.5289 dc         1 CLA      0.029400
     87 HBA1       79.3167   58.8728   33.7170 dc         1 CLA      0.029400
     88 HAC2       70.7931   57.4421   44.1367 dc         1 CLA      0.029300
     89 HAC1       69.8796   57.4451   42.5568 dc         1 CLA      0.029300
     90 HAA2       76.7022   57.2802   33.9448 dc         1 CLA      0.028700
     91 HAA1       76.9752   58.9554   34.4531 dc         1 CLA      0.028700
     92 H203       81.1054   61.9678   43.9707 dc         1 CLA      0.065600
     93 H202       80.8292   60.2807   43.8576 dc         1 CLA      0.065600
     94 H201       80.0134   61.2054   45.2125 dc         1 CLA      0.065600
     95 H193       83.2920   61.7373   47.0226 dc         1 CLA      0.065600
     96 H192       82.4306   62.7905   45.9056 dc         1 CLA      0.065600
     97 H191       81.5739   61.8565   47.1726 dc         1 CLA      0.065600
     98 H172       84.1464   60.2554   45.4443 dc         1 CLA      0.027600
     99 H171       83.8688   61.4115   44.2975 dc         1 CLA      0.027600
    100 H162       82.6327   59.6698   42.8384 dc         1 CLA      0.002900
    101 H161       83.1219   58.4596   44.0731 dc         1 CLA      0.002900
    102 H152       85.5519   58.8560   43.3919 dc         1 CLA      0.029100
    103 H151       84.9660   60.2171   42.3251 dc         1 CLA      0.029100
    104 H143       84.8800   56.4843   43.0511 dc         1 CLA      0.063600
    105 H142       83.2296   56.6238   42.3201 dc         1 CLA      0.063600
    106 H141       84.4769   56.0766   41.3609 dc         1 CLA      0.063600
    107 H122       84.3826   59.5001   40.0093 dc         1 CLA      0.032500
    108 H121       82.8857   58.7331   40.5912 dc         1 CLA      0.032500
    109 H112       83.2673   58.1055   38.2629 dc         1 CLA      0.006600
    110 H111       83.4746   56.6728   39.2797 dc         1 CLA      0.006600
    111 H102       86.0075   56.9171   39.2105 dc         1 CLA      0.024100
    112 H101       85.7942   58.4475   38.4749 dc         1 CLA      0.024100
    113 HHD        71.1673   56.5851   40.4121 da         1 CLA      0.174300
    114 HHC        74.8054   60.8056   43.4197 da         1 CLA      0.136800
    115 HHB        79.0872   60.4566   38.7437 da         1 CLA      0.138300
    116 HBD        74.9355   56.3637   34.6389 dc         1 CLA      0.107700
    117 HAB        77.6588   62.7832   43.9569 da         1 CLA      0.155200
    118 H93        87.2927   56.0368   37.5540 dc         1 CLA      0.069500
    119 H92        86.9794   56.1222   35.7449 dc         1 CLA      0.069500
    120 H91        87.3430   57.6642   36.5707 dc         1 CLA      0.069500
    121 H8         84.9802   57.4411   36.4635 dc         1 CLA      0.029300
    122 H72        83.8558   55.3669   37.6076 dc         1 CLA      0.044400
    123 H71        85.3426   54.5791   37.4003 dc         1 CLA      0.044400
    124 H62        85.2365   54.7530   34.9496 dc         1 CLA      0.015600
    125 H61        83.7168   55.7351   35.1644 dc         1 CLA      0.015600
    126 H52        83.8497   52.9840   36.1858 dc         1 CLA      0.033200
    127 H51        83.3726   53.3718   34.4809 dc         1 CLA      0.033200
    128 H43        80.2324   52.6757   36.3968 dc         1 CLA      0.037000
    129 H42        81.5559   51.7666   35.7554 dc         1 CLA      0.037000
    130 H41        81.4725   52.1755   37.5193 dc         1 CLA      0.037000
    131 H3A        78.6262   59.8101   36.0164 dc         1 CLA      0.041100
    132 H2A        78.2250   56.7548   35.9689 dc         1 CLA      0.083100
    133 H2         81.1449   55.6962   36.3182 da         1 CLA      0.180900
    134 H18        81.8961   59.8266   45.8847 dc         1 CLA     -0.003900
    135 H13        85.7120   58.0128   41.3009 dc         1 CLA      0.019700
    136 H12        79.8106   54.5396   34.0156 dc         1 CLA      0.120400
    137 H11        81.4741   54.9935   33.5580 dc         1 CLA      0.120400
    138 C1         67.5695   60.8509   50.0347 Z1         2 LUT      0.509236
    139 C2         66.3126   60.6383   50.9181 Z2         2 LUT     -0.434695
    140 C3         65.4541   61.8611   51.2835 Z3         2 LUT      0.437453
    141 O3         65.9776   62.3844   52.5243 S1         2 LUT     -0.547129
    142 C4         65.4716   62.9453   50.1901 Z4         2 LUT     -0.468603
    143 C5         66.0087   62.5517   48.8906 Z5         2 LUT      0.279246
    144 C6         66.9990   61.5819   48.7478 Z6         2 LUT     -0.305473
    145 C7         67.5562   61.0576   47.4733 Z7         2 LUT      0.069402
    146 C8         68.1658   61.8798   46.5989 Z8         2 LUT     -0.191631
    147 C9         68.9360   61.4402   45.3674 Z9         2 LUT      0.196698
    148 C10        69.6371   62.4316   44.7329 Y1         2 LUT     -0.208611
    149 C11        70.4379   62.3314   43.5336 Y2         2 LUT      0.030784
    150 C12        71.4302   63.2170   43.2149 Y3         2 LUT     -0.220316
    151 C13        72.4223   63.0187   42.1748 Y4         2 LUT      0.215937
    152 C14        73.6140   63.7257   42.1969 Y5         2 LUT     -0.185793
    153 C15        74.7105   63.6931   41.2888 Y6         2 LUT     -0.057835
    154 C16        68.3835   59.4619   49.8473 Y7         2 LUT     -0.405615
    155 C17        68.5574   61.6747   50.8372 Y7         2 LUT     -0.405615
    156 C18        65.5413   63.4884   47.7107 Y9         2 LUT     -0.369639
    157 C19        68.8027   60.0129   44.9307 W1         2 LUT     -0.333362
    158 C20        72.2409   61.8820   41.1457 W2         2 LUT     -0.323439
    159 C21        85.9865   65.1430   35.1717 Z1         2 LUT      0.406104
    160 C22        86.5151   64.5761   33.8484 Z2         2 LUT     -0.404965
    161 C23        86.5358   65.5132   32.7251 Z3         2 LUT      0.391255
    162 O23        86.7785   64.6359   31.5983 S1         2 LUT     -0.528210
    163 C24        85.2465   66.4137   32.6099 W6         2 LUT     -0.258361
    164 C25        84.3291   66.4506   33.6003 Z5         2 LUT      0.133546
    165 C26        84.5266   65.6831   34.8800 W8         2 LUT     -0.147008
    166 C27        83.8873   66.3897   36.1050 Z7         2 LUT      0.023843
    167 C28        82.7445   65.9894   36.6979 Z8         2 LUT     -0.216987
    168 C29        82.0433   66.4795   37.8946 Z9         2 LUT      0.206524
    169 C30        80.8250   65.9041   38.2459 Y1         2 LUT     -0.215556
    170 C31        79.9498   66.2276   39.3840 Y2         2 LUT      0.025142
    171 C32        78.8660   65.4185   39.6044 Y3         2 LUT     -0.212209
    172 C33        77.9030   65.6176   40.5751 Y4         2 LUT      0.240937
    173 C34        76.8676   64.6655   40.5405 Y5         2 LUT     -0.218862
    174 C35        75.7977   64.5149   41.5004 Y6         2 LUT     -0.023547
    175 C36        86.9752   66.1640   35.7833 Y7         2 LUT     -0.393485
    176 C37        86.1012   63.9135   36.1428 Y7         2 LUT     -0.393485
    177 C38        82.9739   67.0192   33.2455 Y9         2 LUT     -0.387526
    178 C39        82.5973   67.5998   38.7290 W1         2 LUT     -0.322618
    179 C40        78.2375   66.5184   41.7294 W2         2 LUT     -0.358472
    180 H403       77.5240   66.4340   42.5571 R7         2 LUT      0.097720
    181 H402       79.2497   66.2531   42.1218 R7         2 LUT      0.097720
    182 H401       78.2340   67.5506   41.5896 R7         2 LUT      0.097720
    183 H393       82.4435   68.5974   38.2643 R4         2 LUT      0.082505
    184 H392       82.2512   67.5427   39.7859 R4         2 LUT      0.082505
    185 H391       83.6806   67.4529   38.8644 R4         2 LUT      0.082505
    186 H383       82.3982   66.4951   32.4815 R1         2 LUT      0.104030
    187 H382       82.3008   66.9983   34.0720 R1         2 LUT      0.104030
    188 H381       83.1245   68.0962   32.9736 R1         2 LUT      0.104030
    189 H373       87.1583   63.6507   36.3577 T4         2 LUT      0.089537
    190 H372       85.5956   64.1710   36.9974 T4         2 LUT      0.089537
    191 H371       85.5730   63.0642   35.7586 T4         2 LUT      0.089537
    192 H363       88.0815   65.8456   35.9312 T4         2 LUT      0.089537
    193 H362       87.0978   67.0329   35.1233 T4         2 LUT      0.089537
    194 H361       86.5057   66.5225   36.6999 T4         2 LUT      0.089537
    195 H222       87.5103   64.1526   34.0267 U2         2 LUT      0.127376
    196 H221       85.8603   63.7216   33.4920 U2         2 LUT      0.127376
    197 H203       73.0483   61.6001   40.5764 R7         2 LUT      0.087068
    198 H202       71.8850   60.9066   41.5804 R7         2 LUT      0.087068
    199 H201       71.4596   62.2240   40.3901 R7         2 LUT      0.087068
    200 H193       69.3862   59.8093   44.0372 R4         2 LUT      0.089716
    201 H192       69.1920   59.3510   45.7488 R4         2 LUT      0.089716
    202 H191       67.8000   59.7960   44.7250 R4         2 LUT      0.089716
    203 H183       64.5801   63.9103   47.9396 R1         2 LUT      0.094572
    204 H182       66.2285   64.3319   47.6409 R1         2 LUT      0.094572
    205 H181       65.5028   62.9259   46.7814 R1         2 LUT      0.094572
    206 H173       68.5673   61.3544   51.9067 T4         2 LUT      0.093752
    207 H172       69.6102   61.7614   50.4836 T4         2 LUT      0.093752
    208 H171       68.1656   62.7116   50.7334 T4         2 LUT      0.093752
    209 H163       68.6950   59.2287   50.8866 T4         2 LUT      0.093752
    210 H162       67.7810   58.6487   49.4391 T4         2 LUT      0.093752
    211 H161       69.2490   59.5196   49.1646 T4         2 LUT      0.093752
    212 HO3        65.5723   61.9670   53.2985 Q1         2 LUT      0.300121
    213 H8         68.2118   62.8957   46.9901 U7         2 LUT      0.080784
    214 H7         67.5835   59.9872   47.2427 U6         2 LUT      0.042190
    215 H42        64.4219   63.2335   50.0399 U5         2 LUT      0.145166
    216 H41        66.0352   63.8805   50.4664 U5         2 LUT      0.145166
    217 H35        75.6934   65.2440   42.3590 T3         2 LUT      0.077919
    218 H34        76.8048   63.8555   39.7980 T2         2 LUT      0.073626
    219 H32        78.6811   64.6101   38.8797 T1         2 LUT      0.092510
    220 H31        80.1465   67.0742   40.0166 U9         2 LUT      0.070048
    221 H30        80.4862   65.0990   37.5751 U8         2 LUT      0.085442
    222 H3         64.3844   61.4177   51.3940 U3         2 LUT     -0.031596
    223 H28        82.3072   65.1183   36.1826 U7         2 LUT      0.084728
    224 H27        84.3216   67.3587   36.4035 U6         2 LUT      0.087291
    225 H26        83.9110   64.7902   34.5357 Q6         2 LUT      0.075325
    226 H24        85.0218   66.9100   31.6377 Q5         2 LUT      0.094482
    227 H23        87.3663   66.1761   32.8896 U3         2 LUT     -0.024869
    228 H22        65.6716   60.0225   50.2167 U2         2 LUT      0.127376
    229 H21        66.4500   60.1409   51.8723 U2         2 LUT      0.127376
    230 H15        74.6303   63.1374   40.3395 T3         2 LUT      0.093200
    231 H14        73.9025   64.3641   43.0239 T2         2 LUT      0.068865
    232 H12        71.5787   64.1132   43.8352 T1         2 LUT      0.095507
    233 H11        70.2527   61.4518   42.9566 U9         2 LUT      0.068930
    234 H10        69.6398   63.3631   45.2900 U8         2 LUT      0.083911
    235 H1         86.9538   65.0518   30.7232 Q1         2 LUT      0.297311
@<TRIPOS>BOND
    1     6     1 1
    2     7     2 1
    3     8     3 1
    4     9     4 1
    5    11     4 1
    6    12     6 1
    7    13     9 1
    8    16     9 1
    9    25     5 1
   10    25    16 1
   11    26    10 1
   12    26    17 1
   13    27    18 1
   14    28    14 1
   15    28    19 1
   16    29    12 1
   17    30    13 1
   18    31    24 1
   19    32     1 1
   20    32    25 1
   21    33    21 1
   22    33    26 1
   23    34    22 1
   24    34    27 1
   25    35    23 1
   26    35    28 1
   27    36    12 1
   28    36    24 1
   29    37    13 1
   30    37    15 1
   31    38    31 1
   32    39    20 1
   33    39    32 1
   34    40     2 1
   35    40    33 1
   36    41     3 1
   37    41    34 1
   38    42     4 1
   39    42    35 1
   40    43    38 1
   41    44     5 1
   42    44    17 1
   43    44    39 1
   44    45    10 1
   45    45    18 1
   46    45    40 1
   47    46    19 1
   48    46    41 1
   49    47    14 1
   50    47    16 1
   51    47    42 1
   52    48    38 1
   53    49    48 1
   54    50    49 1
   55    51    50 1
   56    52    51 1
   57    53    51 1
   58    54    53 1
   59    55    54 1
   60    56    55 1
   61    57    56 1
   62    58    56 1
   63    59    58 1
   64    60    59 1
   65    61    60 1
   66    62    61 1
   67    63    61 1
   68    64    27 1
   69    64    46 1
   70    65     5 1
   71    65    10 1
   72    65    64 1
   73    65    14 1
   74    66    23 1
   75    67    23 1
   76    68    23 1
   77    69    22 1
   78    70    22 1
   79    71    22 1
   80    72    21 1
   81    73    21 1
   82    74    21 1
   83    75    20 1
   84    76    20 1
   85    77    20 1
   86    78    15 1
   87    79    15 1
   88    80    15 1
   89    81     8 1
   90    82     8 1
   91    83     8 1
   92    84     7 1
   93    85     7 1
   94    86     6 1
   95    87     6 1
   96    88     3 1
   97    89     3 1
   98    90     1 1
   99    91     1 1
  100    92    63 1
  101    93    63 1
  102    94    63 1
  103    95    62 1
  104    96    62 1
  105    97    62 1
  106    98    60 1
  107    99    60 1
  108   100    59 1
  109   101    59 1
  110   102    58 1
  111   103    58 1
  112   104    57 1
  113   105    57 1
  114   106    57 1
  115   107    55 1
  116   108    55 1
  117   109    54 1
  118   110    54 1
  119   111    53 1
  120   112    53 1
  121   113    19 1
  122   114    18 1
  123   115    17 1
  124   116     9 1
  125   117     2 1
  126   118    52 1
  127   119    52 1
  128   120    52 1
  129   121    51 1
  130   122    50 1
  131   123    50 1
  132   124    49 1
  133   125    49 1
  134   126    48 1
  135   127    48 1
  136   128    43 1
  137   129    43 1
  138   130    43 1
  139   131    39 1
  140   132    32 1
  141   133    31 1
  142   134    61 1
  143   135    56 1
  144   136    24 1
  145   137    24 1
  146   139   138 1
  147   140   139 1
  148   141   140 1
  149   142   140 1
  150   143   142 1
  151   144   138 1
  152   144   143 1
  153   145   144 1
  154   146   145 1
  155   147   146 1
  156   148   147 1
  157   149   148 1
  158   150   149 1
  159   151   150 1
  160   152   151 1
  161   153   152 1
  162   154   138 1
  163   155   138 1
  164   156   143 1
  165   157   147 1
  166   158   151 1
  167   160   159 1
  168   161   160 1
  169   162   161 1
  170   163   161 1
  171   164   163 1
  172   165   159 1
  173   165   164 1
  174   166   165 1
  175   167   166 1
  176   168   167 1
  177   169   168 1
  178   170   169 1
  179   171   170 1
  180   172   171 1
  181   173   172 1
  182   174   153 1
  183   174   173 1
  184   175   159 1
  185   176   159 1
  186   177   164 1
  187   178   168 1
  188   179   172 1
  189   180   179 1
  190   181   179 1
  191   182   179 1
  192   183   178 1
  193   184   178 1
  194   185   178 1
  195   186   177 1
  196   187   177 1
  197   188   177 1
  198   189   176 1
  199   190   176 1
  200   191   176 1
  201   192   175 1
  202   193   175 1
  203   194   175 1
  204   195   160 1
  205   196   160 1
  206   197   158 1
  207   198   158 1
  208   199   158 1
  209   200   157 1
  210   201   157 1
  211   202   157 1
  212   203   156 1
  213   204   156 1
  214   205   156 1
  215   206   155 1
  216   207   155 1
  217   208   155 1
  218   209   154 1
  219   210   154 1
  220   211   154 1
  221   212   141 1
  222   213   146 1
  223   214   145 1
  224   215   142 1
  225   216   142 1
  226   217   174 1
  227   218   173 1
  228   219   171 1
  229   220   170 1
  230   221   169 1
  231   222   140 1
  232   223   167 1
  233   224   166 1
  234   225   165 1
  235   226   163 1
  236   227   161 1
  237   228   139 1
  238   229   139 1
  239   230   153 1
  240   231   152 1
  241   232   150 1
  242   233   149 1
  243   234   148 1
  244   235   162 1
  245   65    153 1
  246   65    174 1
@<TRIPOS>SUBSTRUCTURE
      1 CLA               1 ****               0 ****  **** 
      2 LUT             138 ****               0 ****  **** 
