@<TRIPOS>MOLECULE
Cpptraj generated mol2 file.
  235   246     2     0     0
SMALL
USER_CHARGES


@<TRIPOS>ATOM
      1 CAA        79.3621   58.0711   34.7102 a2         1 CLA     -0.055900
      2 CAB        80.1451   61.9046   43.6202 c8         1 CLA     -0.148500
      3 CAC        72.9698   58.1462   43.6455 a2         1 CLA     -0.012600
      4 CAD        75.1397   55.9064   36.0720 ck         1 CLA      0.398800
      5 NA         78.4439   58.7574   38.1755 ns         1 CLA     -0.225500
      6 CBA        80.5851   58.1595   33.7203 a2         1 CLA     -0.135000
      7 CBB        80.0911   61.2725   44.7929 c0         1 CLA     -0.395200
      8 CBC        72.9988   56.6360   43.5481 a3         1 CLA     -0.037700
      9 CBD        76.6457   56.2684   35.8323 a1         1 CLA     -0.053900
     10 NB         78.5288   60.2836   40.7688 nm         1 CLA     -0.295700
     11 OBD        74.5683   55.1844   35.2914 o2         1 CLA     -0.494600
     12 CGA        81.2198   56.7938   33.3854 c4         1 CLA      0.827000
     13 CGD        77.4802   55.0567   35.7626 c4         1 CLA      0.655300
     14 ND         75.7115   57.9782   38.8900 nm         1 CLA     -0.291600
     15 CED        78.4148   53.1720   36.9877 a3         1 CLA      0.005400
     16 CHA        77.0592   57.1925   37.0050 cs         1 CLA     -0.123800
     17 CHB        80.2981   60.0919   39.0307 aa         1 CLA     -0.291900
     18 CHC        77.3640   60.5768   42.8348 aa         1 CLA     -0.090400
     19 CHD        73.9419   58.0051   40.5750 aa         1 CLA     -0.052000
     20 CMA        81.8048   57.8143   37.4863 a3         1 CLA     -0.230700
     21 CMB        82.1489   61.5858   41.1032 a3         1 CLA     -0.180800
     22 CMC        75.1625   60.2581   45.0149 a3         1 CLA     -0.134000
     23 CMD        72.3856   56.2065   38.2803 a3         1 CLA     -0.141100
     24 C1         81.8869   54.9425   34.6680 a2         1 CLA      0.023000
     25 C1A        78.2492   57.8533   37.1315 ac         1 CLA     -0.015100
     26 C1B        79.7536   60.5867   40.2664 cr         1 CLA      0.054700
     27 C1C        76.1426   59.9377   42.6059 cn         1 CLA     -0.005600
     28 C1D        74.4044   57.6362   39.3041 ap         1 CLA     -0.047300
     29 O1A        81.0344   56.1384   32.3580 o2         1 CLA     -0.610800
     30 O1D        78.2986   54.8208   34.8700 o2         1 CLA     -0.558200
     31 C2         82.9772   54.4490   35.5431 c8         1 CLA     -0.325100
     32 C2A        79.5469   57.7067   36.2281 a1         1 CLA      0.098600
     33 C2B        80.5661   61.2468   41.2333 cb         1 CLA      0.088500
     34 C2C        75.1212   59.7354   43.5684 cb         1 CLA      0.053700
     35 C2D        73.8250   56.7497   38.3173 cb         1 CLA      0.058900
     36 O2A        81.9279   56.4249   34.5147 o1         1 CLA     -0.437200
     37 O2D        77.3696   54.2443   36.9150 o1         1 CLA     -0.357600
     38 C3         83.7998   53.3722   35.3033 c5         1 CLA      0.031200
     39 C3A        80.5279   58.5672   37.0083 a1         1 CLA      0.166800
     40 C3B        79.7108   61.4061   42.3452 cb         1 CLA      0.035000
     41 C3C        74.2118   58.8214   43.0102 cb         1 CLA     -0.089900
     42 C3D        74.7854   56.5843   37.3372 cb         1 CLA     -0.035900
     43 C4         83.2761   51.9363   35.4917 a3         1 CLA     -0.053300
     44 C4A        79.6928   59.2230   38.1251 ac         1 CLA      0.001800
     45 C4B        78.4632   60.7835   42.0178 cn         1 CLA     -0.020900
     46 C4C        74.5811   58.7365   41.5994 cr         1 CLA     -0.044400
     47 C4D        75.9262   57.2885   37.7915 c6         1 CLA     -0.046000
     48 C5         85.1592   53.5716   34.7032 a2         1 CLA     -0.070400
     49 C6         85.7770   54.9037   35.0357 a2         1 CLA      0.043900
     50 C7         86.2957   54.8470   36.3706 a2         1 CLA     -0.150000
     51 C8         86.4184   56.1557   37.2178 a1         1 CLA      0.064200
     52 C9         87.3987   57.1375   36.5378 a3         1 CLA     -0.259300
     53 C10        86.7643   55.7167   38.6177 a2         1 CLA     -0.071900
     54 C11        86.9523   56.8989   39.6292 a2         1 CLA      0.014500
     55 C12        87.0212   56.2886   41.0345 a2         1 CLA     -0.112100
     56 C13        87.4677   57.2421   42.1952 a1         1 CLA      0.089200
     57 C14        88.9890   57.5973   42.1320 a3         1 CLA     -0.239100
     58 C15        87.0710   56.6523   43.6282 a2         1 CLA     -0.102200
     59 C16        87.2870   57.4123   44.9326 a2         1 CLA      0.023900
     60 C17        86.5793   56.7849   46.0825 a2         1 CLA     -0.105700
     61 C18        86.5280   57.6859   47.2885 a1         1 CLA      0.206800
     62 C19        85.6020   57.0589   48.3487 a3         1 CLA     -0.280100
     63 C20        87.8892   57.9670   47.8265 a3         1 CLA     -0.280100
     64 NC         75.8152   59.3102   41.4245 nx         1 CLA     -0.309200
     65 MG         76.9855   59.1846   39.7204 mg         1 CLA      0.895000
     66 HMD3       72.0384   55.8246   39.2465 dc         1 CLA      0.064300
     67 HMD2       71.7388   56.9679   37.8362 dc         1 CLA      0.064300
     68 HMD1       72.4309   55.3879   37.5654 dc         1 CLA      0.064300
     69 HMC3       76.1501   60.2668   45.4400 dc         1 CLA      0.052100
     70 HMC2       74.7755   61.2641   45.1069 dc         1 CLA      0.052100
     71 HMC1       74.5701   59.5270   45.5332 dc         1 CLA      0.052100
     72 HMB3       82.5891   61.7092   42.0525 dc         1 CLA      0.063600
     73 HMB2       82.6679   60.6840   40.6758 dc         1 CLA      0.063600
     74 HMB1       82.3666   62.3547   40.4077 dc         1 CLA      0.063600
     75 HMA3       81.6396   57.0406   38.2601 dc         1 CLA      0.058300
     76 HMA2       82.3604   57.3707   36.6672 dc         1 CLA      0.058300
     77 HMA1       82.4529   58.4987   38.0378 dc         1 CLA      0.058300
     78 HED3       77.9588   52.1716   36.8515 dc         1 CLA      0.079300
     79 HED2       79.2399   53.0651   36.2965 dc         1 CLA      0.079300
     80 HED1       78.8357   53.1953   37.9642 dc         1 CLA      0.079300
     81 HBC3       73.4424   56.3112   42.5762 dc         1 CLA      0.016300
     82 HBC2       73.4929   56.0748   44.4201 dc         1 CLA      0.016300
     83 HBC1       71.9507   56.4685   43.3925 dc         1 CLA      0.016300
     84 HBB2       80.6080   61.6983   45.6359 da         1 CLA      0.183000
     85 HBB1       79.5686   60.3189   44.9651 da         1 CLA      0.183000
     86 HBA2       80.3126   58.6171   32.7767 dc         1 CLA      0.029400
     87 HBA1       81.3343   58.8602   34.1603 dc         1 CLA      0.029400
     88 HAC2       72.9548   58.4222   44.6707 dc         1 CLA      0.029300
     89 HAC1       72.0289   58.5479   43.2284 dc         1 CLA      0.029300
     90 HAA2       78.5176   57.4514   34.3420 dc         1 CLA      0.028700
     91 HAA1       78.9453   59.1033   34.8209 dc         1 CLA      0.028700
     92 H203       87.7874   58.5069   48.8139 dc         1 CLA      0.065600
     93 H202       88.4537   57.1066   48.0423 dc         1 CLA      0.065600
     94 H201       88.4648   58.6784   47.0823 dc         1 CLA      0.065600
     95 H193       84.7480   56.5940   47.9059 dc         1 CLA      0.065600
     96 H192       86.1389   56.3022   48.9331 dc         1 CLA      0.065600
     97 H191       85.2748   57.8283   49.0257 dc         1 CLA      0.065600
     98 H172       85.6096   56.7273   45.6972 dc         1 CLA      0.027600
     99 H171       87.0477   55.8230   46.2726 dc         1 CLA      0.027600
    100 H162       88.3610   57.4984   45.0807 dc         1 CLA      0.002900
    101 H161       86.9272   58.3712   44.7759 dc         1 CLA      0.002900
    102 H152       86.0269   56.3505   43.6121 dc         1 CLA      0.029100
    103 H151       87.5439   55.6940   43.7676 dc         1 CLA      0.029100
    104 H143       89.2807   58.1373   43.0775 dc         1 CLA      0.063600
    105 H142       89.6546   56.7126   42.0375 dc         1 CLA      0.063600
    106 H141       89.1171   58.3625   41.3497 dc         1 CLA      0.063600
    107 H122       86.0678   55.7695   41.2206 dc         1 CLA      0.032500
    108 H121       87.8057   55.5403   41.0632 dc         1 CLA      0.032500
    109 H112       87.8374   57.5215   39.4205 dc         1 CLA      0.006600
    110 H111       86.0176   57.5590   39.5634 dc         1 CLA      0.006600
    111 H102       85.8905   55.1053   38.8988 dc         1 CLA      0.024100
    112 H101       87.6741   55.1487   38.5206 dc         1 CLA      0.024100
    113 HHD        72.9410   57.6153   40.8362 da         1 CLA      0.174300
    114 HHC        77.4149   60.9314   43.8875 da         1 CLA      0.136800
    115 HHB        81.3401   60.3115   38.7962 da         1 CLA      0.138300
    116 HBD        76.6650   56.8640   34.9418 dc         1 CLA      0.107700
    117 HAB        80.7881   62.8026   43.4523 da         1 CLA      0.155200
    118 H93        88.3654   56.9798   36.9662 dc         1 CLA      0.069500
    119 H92        87.5099   57.0696   35.4959 dc         1 CLA      0.069500
    120 H91        87.1088   58.1552   36.7445 dc         1 CLA      0.069500
    121 H8         85.4439   56.6198   37.1987 dc         1 CLA      0.029300
    122 H72        85.7398   54.1416   36.9799 dc         1 CLA      0.044400
    123 H71        87.2175   54.2713   36.4382 dc         1 CLA      0.044400
    124 H62        86.6152   54.9975   34.3669 dc         1 CLA      0.015600
    125 H61        85.0534   55.6850   34.8787 dc         1 CLA      0.015600
    126 H52        85.7901   52.7109   34.9351 dc         1 CLA      0.033200
    127 H51        85.0243   53.5723   33.6373 dc         1 CLA      0.033200
    128 H43        83.3762   51.2502   34.5603 dc         1 CLA      0.037000
    129 H42        83.8386   51.4211   36.3071 dc         1 CLA      0.037000
    130 H41        82.2470   51.9244   35.8385 dc         1 CLA      0.037000
    131 H3A        80.7805   59.4013   36.3563 dc         1 CLA      0.041100
    132 H2A        79.9392   56.6923   36.3108 dc         1 CLA      0.083100
    133 H2         83.0835   54.9699   36.4698 da         1 CLA      0.180900
    134 H18        85.9970   58.5847   46.9828 dc         1 CLA     -0.003900
    135 H13        86.9813   58.1181   41.8825 dc         1 CLA      0.019700
    136 H12        80.8814   54.7943   34.9565 dc         1 CLA      0.120400
    137 H11        82.0435   54.4284   33.7475 dc         1 CLA      0.120400
    138 C1         69.3744   61.3803   50.0489 Z1         2 LUT      0.509236
    139 C2         68.0610   61.3184   50.9274 Z2         2 LUT     -0.434695
    140 C3         67.4565   62.6653   51.2960 Z3         2 LUT      0.437453
    141 O3         67.8564   63.1700   52.5920 S1         2 LUT     -0.547129
    142 C4         67.7152   63.8261   50.3240 Z4         2 LUT     -0.468603
    143 C5         68.2866   63.5122   49.0046 Z5         2 LUT      0.279246
    144 C6         69.0405   62.3481   48.8689 Z6         2 LUT     -0.305473
    145 C7         69.5019   61.9326   47.5264 Z7         2 LUT      0.069402
    146 C8         70.4003   62.4969   46.7118 Z8         2 LUT     -0.191631
    147 C9         71.1445   62.0574   45.5338 Z9         2 LUT      0.196698
    148 C10        72.0987   62.9109   44.9859 Y1         2 LUT     -0.208611
    149 C11        72.8391   62.7308   43.7741 Y2         2 LUT      0.030784
    150 C12        73.9798   63.5105   43.5068 Y3         2 LUT     -0.220316
    151 C13        74.9887   63.3635   42.4786 Y4         2 LUT      0.215937
    152 C14        76.2010   63.9976   42.6360 Y5         2 LUT     -0.185793
    153 C15        77.3869   63.9382   41.7431 Y6         2 LUT     -0.057835
    154 C16        69.8817   59.9547   49.7676 Y7         2 LUT     -0.405615
    155 C17        70.3816   61.9634   51.0143 Y7         2 LUT     -0.405615
    156 C18        67.9238   64.3987   47.9021 Y9         2 LUT     -0.369639
    157 C19        70.7732   60.7352   44.9729 W1         2 LUT     -0.333362
    158 C20        74.8087   62.6650   41.1584 W2         2 LUT     -0.323439
    159 C21        88.2815   65.6486   34.9459 Z1         2 LUT      0.406104
    160 C22        88.9381   65.0514   33.7810 Z2         2 LUT     -0.404965
    161 C23        89.0539   66.0501   32.5657 Z3         2 LUT      0.391255
    162 O23        89.3311   65.2927   31.3822 S1         2 LUT     -0.528210
    163 C24        87.7656   66.9671   32.4653 W6         2 LUT     -0.258361
    164 C25        86.7558   66.9679   33.3599 Z5         2 LUT      0.133546
    165 C26        86.7187   66.0873   34.6252 W8         2 LUT     -0.147008
    166 C27        86.1469   66.8636   35.7799 Z7         2 LUT      0.023843
    167 C28        85.1681   66.2769   36.5513 Z8         2 LUT     -0.216987
    168 C29        84.6130   66.6149   37.8754 Z9         2 LUT      0.206524
    169 C30        83.4000   66.0471   38.1756 Y1         2 LUT     -0.215556
    170 C31        82.6170   66.2269   39.3846 Y2         2 LUT      0.025142
    171 C32        81.4653   65.5029   39.6798 Y3         2 LUT     -0.212209
    172 C33        80.7129   65.3682   40.9616 Y4         2 LUT      0.240937
    173 C34        79.5731   64.6102   40.9943 Y5         2 LUT     -0.218862
    174 C35        78.5232   64.6487   41.9450 Y6         2 LUT     -0.023547
    175 C36        89.2840   66.6864   35.5350 Y7         2 LUT     -0.393485
    176 C37        88.2449   64.5197   35.9178 Y7         2 LUT     -0.393485
    177 C38        85.4456   67.6376   32.9106 Y9         2 LUT     -0.387526
    178 C39        85.2481   67.5898   38.8504 W1         2 LUT     -0.322618
    179 C40        81.1402   66.3054   42.0654 W2         2 LUT     -0.358472
    180 H403       80.8315   67.3282   41.8808 R7         2 LUT      0.097720
    181 H402       80.5817   66.0324   42.9354 R7         2 LUT      0.097720
    182 H401       82.1911   66.3110   42.3357 R7         2 LUT      0.097720
    183 H393       85.3796   67.3475   39.8251 R4         2 LUT      0.082505
    184 H392       86.2385   67.8345   38.4640 R4         2 LUT      0.082505
    185 H391       84.6747   68.5183   38.9278 R4         2 LUT      0.082505
    186 H383       85.0984   67.1086   32.0253 R1         2 LUT      0.104030
    187 H382       84.6447   67.3883   33.6061 R1         2 LUT      0.104030
    188 H381       85.6040   68.7060   32.7102 R1         2 LUT      0.104030
    189 H373       89.2144   64.2671   36.3120 T4         2 LUT      0.089537
    190 H372       87.5911   64.8455   36.7535 T4         2 LUT      0.089537
    191 H371       87.7887   63.4701   35.7033 T4         2 LUT      0.089537
    192 H363       88.9963   66.9479   36.5343 T4         2 LUT      0.089537
    193 H362       90.3461   66.2719   35.5948 T4         2 LUT      0.089537
    194 H361       89.3330   67.5927   34.9306 T4         2 LUT      0.089537
    195 H222       89.9680   64.5602   33.9354 U2         2 LUT      0.127376
    196 H221       88.3484   64.1120   33.3920 U2         2 LUT      0.127376
    197 H203       74.1854   61.7548   41.4123 R7         2 LUT      0.087068
    198 H202       74.3318   63.1713   40.3448 R7         2 LUT      0.087068
    199 H201       75.7081   62.1601   40.7912 R7         2 LUT      0.087068
    200 H193       71.5365   60.3999   44.3085 R4         2 LUT      0.089716
    201 H192       70.6275   59.9201   45.7355 R4         2 LUT      0.089716
    202 H191       69.9262   60.7323   44.3311 R4         2 LUT      0.089716
    203 H183       67.8273   63.8441   46.9244 R1         2 LUT      0.094572
    204 H182       66.9385   64.9510   48.0620 R1         2 LUT      0.094572
    205 H181       68.6306   65.1833   47.6552 R1         2 LUT      0.094572
    206 H173       70.6033   61.1668   51.7333 T4         2 LUT      0.093752
    207 H172       71.2797   62.2818   50.5213 T4         2 LUT      0.093752
    208 H171       70.1563   62.7825   51.6148 T4         2 LUT      0.093752
    209 H163       69.9803   59.4902   50.7112 T4         2 LUT      0.093752
    210 H162       69.2383   59.3553   49.1235 T4         2 LUT      0.093752
    211 H161       70.8891   59.9906   49.2322 T4         2 LUT      0.093752
    212 HO3        67.4271   62.6677   53.2950 Q1         2 LUT      0.300121
    213 H8         70.7094   63.4666   47.0437 U7         2 LUT      0.080784
    214 H7         69.1624   60.9343   47.2124 U6         2 LUT      0.042190
    215 H42        66.7693   64.4018   50.3649 U5         2 LUT      0.145166
    216 H41        68.3807   64.5831   50.8128 U5         2 LUT      0.145166
    217 H35        78.4776   65.3101   42.7753 T3         2 LUT      0.077919
    218 H34        79.3105   63.9310   40.1596 T2         2 LUT      0.073626
    219 H32        81.0640   64.8487   38.8678 T1         2 LUT      0.092510
    220 H31        83.0476   66.7044   40.2206 U9         2 LUT      0.070048
    221 H30        83.0379   65.4030   37.3694 U8         2 LUT      0.085442
    222 H3         66.4050   62.4874   51.3653 U3         2 LUT     -0.031596
    223 H28        84.7225   65.3515   36.1170 U7         2 LUT      0.084728
    224 H27        86.6431   67.7971   36.0363 U6         2 LUT      0.087291
    225 H26        86.0670   65.1995   34.4438 Q6         2 LUT      0.075325
    226 H24        87.6331   67.6029   31.5743 Q5         2 LUT      0.094482
    227 H23        89.8441   66.7510   32.7167 U3         2 LUT     -0.024869
    228 H22        67.2792   60.6928   50.3323 U2         2 LUT      0.127376
    229 H21        68.2012   60.7189   51.8178 U2         2 LUT      0.127376
    230 H15        77.3267   63.2950   40.8411 T3         2 LUT      0.093200
    231 H14        76.3689   64.6169   43.5239 T2         2 LUT      0.068865
    232 H12        74.3349   64.2043   44.2147 T1         2 LUT      0.095507
    233 H11        72.6299   61.9148   43.1293 U9         2 LUT      0.068930
    234 H10        72.2980   63.8471   45.4947 U8         2 LUT      0.083911
    235 H1         89.4415   65.8980   30.5926 Q1         2 LUT      0.297311
@<TRIPOS>BOND
    1     6     1 1
    2     7     2 1
    3     8     3 1
    4     9     4 1
    5    11     4 1
    6    12     6 1
    7    13     9 1
    8    16     9 1
    9    25     5 1
   10    25    16 1
   11    26    10 1
   12    26    17 1
   13    27    18 1
   14    28    14 1
   15    28    19 1
   16    29    12 1
   17    30    13 1
   18    31    24 1
   19    32     1 1
   20    32    25 1
   21    33    21 1
   22    33    26 1
   23    34    22 1
   24    34    27 1
   25    35    23 1
   26    35    28 1
   27    36    12 1
   28    36    24 1
   29    37    13 1
   30    37    15 1
   31    38    31 1
   32    39    20 1
   33    39    32 1
   34    40     2 1
   35    40    33 1
   36    41     3 1
   37    41    34 1
   38    42     4 1
   39    42    35 1
   40    43    38 1
   41    44     5 1
   42    44    17 1
   43    44    39 1
   44    45    10 1
   45    45    18 1
   46    45    40 1
   47    46    19 1
   48    46    41 1
   49    47    14 1
   50    47    16 1
   51    47    42 1
   52    48    38 1
   53    49    48 1
   54    50    49 1
   55    51    50 1
   56    52    51 1
   57    53    51 1
   58    54    53 1
   59    55    54 1
   60    56    55 1
   61    57    56 1
   62    58    56 1
   63    59    58 1
   64    60    59 1
   65    61    60 1
   66    62    61 1
   67    63    61 1
   68    64    27 1
   69    64    46 1
   70    65     5 1
   71    65    10 1
   72    65    64 1
   73    65    14 1
   74    66    23 1
   75    67    23 1
   76    68    23 1
   77    69    22 1
   78    70    22 1
   79    71    22 1
   80    72    21 1
   81    73    21 1
   82    74    21 1
   83    75    20 1
   84    76    20 1
   85    77    20 1
   86    78    15 1
   87    79    15 1
   88    80    15 1
   89    81     8 1
   90    82     8 1
   91    83     8 1
   92    84     7 1
   93    85     7 1
   94    86     6 1
   95    87     6 1
   96    88     3 1
   97    89     3 1
   98    90     1 1
   99    91     1 1
  100    92    63 1
  101    93    63 1
  102    94    63 1
  103    95    62 1
  104    96    62 1
  105    97    62 1
  106    98    60 1
  107    99    60 1
  108   100    59 1
  109   101    59 1
  110   102    58 1
  111   103    58 1
  112   104    57 1
  113   105    57 1
  114   106    57 1
  115   107    55 1
  116   108    55 1
  117   109    54 1
  118   110    54 1
  119   111    53 1
  120   112    53 1
  121   113    19 1
  122   114    18 1
  123   115    17 1
  124   116     9 1
  125   117     2 1
  126   118    52 1
  127   119    52 1
  128   120    52 1
  129   121    51 1
  130   122    50 1
  131   123    50 1
  132   124    49 1
  133   125    49 1
  134   126    48 1
  135   127    48 1
  136   128    43 1
  137   129    43 1
  138   130    43 1
  139   131    39 1
  140   132    32 1
  141   133    31 1
  142   134    61 1
  143   135    56 1
  144   136    24 1
  145   137    24 1
  146   139   138 1
  147   140   139 1
  148   141   140 1
  149   142   140 1
  150   143   142 1
  151   144   138 1
  152   144   143 1
  153   145   144 1
  154   146   145 1
  155   147   146 1
  156   148   147 1
  157   149   148 1
  158   150   149 1
  159   151   150 1
  160   152   151 1
  161   153   152 1
  162   154   138 1
  163   155   138 1
  164   156   143 1
  165   157   147 1
  166   158   151 1
  167   160   159 1
  168   161   160 1
  169   162   161 1
  170   163   161 1
  171   164   163 1
  172   165   159 1
  173   165   164 1
  174   166   165 1
  175   167   166 1
  176   168   167 1
  177   169   168 1
  178   170   169 1
  179   171   170 1
  180   172   171 1
  181   173   172 1
  182   174   153 1
  183   174   173 1
  184   175   159 1
  185   176   159 1
  186   177   164 1
  187   178   168 1
  188   179   172 1
  189   180   179 1
  190   181   179 1
  191   182   179 1
  192   183   178 1
  193   184   178 1
  194   185   178 1
  195   186   177 1
  196   187   177 1
  197   188   177 1
  198   189   176 1
  199   190   176 1
  200   191   176 1
  201   192   175 1
  202   193   175 1
  203   194   175 1
  204   195   160 1
  205   196   160 1
  206   197   158 1
  207   198   158 1
  208   199   158 1
  209   200   157 1
  210   201   157 1
  211   202   157 1
  212   203   156 1
  213   204   156 1
  214   205   156 1
  215   206   155 1
  216   207   155 1
  217   208   155 1
  218   209   154 1
  219   210   154 1
  220   211   154 1
  221   212   141 1
  222   213   146 1
  223   214   145 1
  224   215   142 1
  225   216   142 1
  226   217   174 1
  227   218   173 1
  228   219   171 1
  229   220   170 1
  230   221   169 1
  231   222   140 1
  232   223   167 1
  233   224   166 1
  234   225   165 1
  235   226   163 1
  236   227   161 1
  237   228   139 1
  238   229   139 1
  239   230   153 1
  240   231   152 1
  241   232   150 1
  242   233   149 1
  243   234   148 1
  244   235   162 1
  245   65    153 1
  246   65    174 1
@<TRIPOS>SUBSTRUCTURE
      1 CLA               1 ****               0 ****  **** 
      2 LUT             138 ****               0 ****  **** 
