@<TRIPOS>MOLECULE
Cpptraj generated mol2 file.
  235   246     2     0     0
SMALL
USER_CHARGES


@<TRIPOS>ATOM
      1 CAA        77.8371   58.3130   34.0581 a2         1 CLA     -0.055900
      2 CAB        78.1329   61.8081   43.2367 c8         1 CLA     -0.148500
      3 CAC        71.4159   57.5216   42.8876 a2         1 CLA     -0.012600
      4 CAD        73.6502   55.5480   35.4610 ck         1 CLA      0.398800
      5 NA         76.8645   58.5860   37.4894 ns         1 CLA     -0.225500
      6 CBA        79.1761   58.1828   33.3036 a2         1 CLA     -0.135000
      7 CBB        79.1697   61.5230   44.0398 c0         1 CLA     -0.395200
      8 CBC        71.5747   55.9585   42.9209 a3         1 CLA     -0.037700
      9 CBD        75.0945   56.0655   35.0780 a1         1 CLA     -0.053900
     10 NB         76.8600   60.0835   40.0848 nm         1 CLA     -0.295700
     11 OBD        73.0660   54.7717   34.7016 o2         1 CLA     -0.494600
     12 CGA        79.5370   56.7165   33.0261 c4         1 CLA      0.827000
     13 CGD        75.9067   54.7811   35.0693 c4         1 CLA      0.655300
     14 ND         74.1264   57.6773   38.2371 nm         1 CLA     -0.291600
     15 CED        76.4273   52.8053   36.2301 a3         1 CLA      0.005400
     16 CHA        75.4828   57.1064   36.1739 cs         1 CLA     -0.123800
     17 CHB        78.7525   59.9399   38.5323 aa         1 CLA     -0.291900
     18 CHC        75.6597   60.2110   42.2084 aa         1 CLA     -0.090400
     19 CHD        72.3197   57.4123   39.9180 aa         1 CLA     -0.052000
     20 CMA        80.1143   57.6845   36.9500 a3         1 CLA     -0.230700
     21 CMB        80.1786   61.6492   40.6525 a3         1 CLA     -0.180800
     22 CMC        73.6228   59.1772   44.5215 a3         1 CLA     -0.134000
     23 CMD        70.9850   55.6993   37.7776 a3         1 CLA     -0.141100
     24 C1         80.6699   54.8204   33.9377 a2         1 CLA      0.023000
     25 C1A        76.7049   57.8244   36.4380 ac         1 CLA     -0.015100
     26 C1B        78.0976   60.3962   39.6657 cr         1 CLA      0.054700
     27 C1C        74.5249   59.4265   42.0069 cn         1 CLA     -0.005600
     28 C1D        72.9066   57.1311   38.6574 ap         1 CLA     -0.047300
     29 O1A        79.1995   56.0714   32.0479 o2         1 CLA     -0.610800
     30 O1D        76.5701   54.4245   34.1189 o2         1 CLA     -0.558200
     31 C2         81.4425   54.3711   35.1121 c8         1 CLA     -0.325100
     32 C2A        77.9492   57.8254   35.5400 a1         1 CLA      0.098600
     33 C2B        78.7902   61.1240   40.7082 cb         1 CLA      0.088500
     34 C2C        73.5499   58.9394   43.0134 cb         1 CLA      0.053700
     35 C2D        72.3203   56.2634   37.6791 cb         1 CLA      0.058900
     36 O2A        80.2854   56.1968   34.0843 o1         1 CLA     -0.437200
     37 O2D        75.8509   54.1423   36.2149 o1         1 CLA     -0.357600
     38 C3         82.2691   53.2933   35.1819 c5         1 CLA      0.031200
     39 C3A        79.0050   58.6096   36.4403 a1         1 CLA      0.166800
     40 C3B        77.9364   61.2892   41.7847 cb         1 CLA      0.035000
     41 C3C        72.5991   58.2661   42.2633 cb         1 CLA     -0.089900
     42 C3D        73.3504   56.1702   36.7108 cb         1 CLA     -0.035900
     43 C4         81.9086   51.8857   35.4828 a3         1 CLA     -0.053300
     44 C4A        78.1921   59.0236   37.5909 ac         1 CLA      0.001800
     45 C4B        76.7304   60.5579   41.3716 cn         1 CLA     -0.020900
     46 C4C        73.0209   58.2357   40.8937 cr         1 CLA     -0.044400
     47 C4D        74.4115   57.0763   37.0925 c6         1 CLA     -0.046000
     48 C5         83.6930   53.5150   34.5061 a2         1 CLA     -0.070400
     49 C6         84.4637   54.7460   34.9050 a2         1 CLA      0.043900
     50 C7         85.0357   54.6262   36.3145 a2         1 CLA     -0.150000
     51 C8         85.3453   56.0047   37.0923 a1         1 CLA      0.064200
     52 C9         86.5331   56.7295   36.4159 a3         1 CLA     -0.259300
     53 C10        85.4619   55.8629   38.6289 a2         1 CLA     -0.071900
     54 C11        84.1067   55.8776   39.3726 a2         1 CLA      0.014500
     55 C12        84.1872   56.5264   40.7834 a2         1 CLA     -0.112100
     56 C13        82.9517   56.4558   41.6214 a1         1 CLA      0.089200
     57 C14        81.8171   57.4738   41.1256 a3         1 CLA     -0.239100
     58 C15        83.2094   56.5690   43.1249 a2         1 CLA     -0.102200
     59 C16        83.9455   57.7649   43.6490 a2         1 CLA      0.023900
     60 C17        83.9910   57.9332   45.0835 a2         1 CLA     -0.105700
     61 C18        84.7417   59.1864   45.6094 a1         1 CLA      0.206800
     62 C19        86.3070   59.0927   45.4241 a3         1 CLA     -0.280100
     63 C20        84.2050   60.5229   45.0107 a3         1 CLA     -0.280100
     64 NC         74.2332   58.9117   40.7434 nx         1 CLA     -0.309200
     65 MG         75.4127   59.0082   39.0579 mg         1 CLA      0.895000
     66 HMD3       70.8302   54.9374   37.0456 dc         1 CLA      0.064300
     67 HMD2       70.9025   55.2424   38.7650 dc         1 CLA      0.064300
     68 HMD1       70.3421   56.5302   37.7823 dc         1 CLA      0.064300
     69 HMC3       72.6026   59.3963   44.9618 dc         1 CLA      0.052100
     70 HMC2       74.0476   58.2544   45.0377 dc         1 CLA      0.052100
     71 HMC1       74.2276   60.0517   44.6534 dc         1 CLA      0.052100
     72 HMB3       80.4048   62.2743   39.7321 dc         1 CLA      0.063600
     73 HMB2       80.4661   62.2319   41.5514 dc         1 CLA      0.063600
     74 HMB1       80.7551   60.7131   40.6885 dc         1 CLA      0.063600
     75 HMA3       80.6270   58.1770   37.7536 dc         1 CLA      0.058300
     76 HMA2       79.7389   56.7318   37.2626 dc         1 CLA      0.058300
     77 HMA1       80.7548   57.6051   36.0588 dc         1 CLA      0.058300
     78 HED3       75.7241   52.1676   35.5937 dc         1 CLA      0.079300
     79 HED2       77.4142   52.7988   35.9616 dc         1 CLA      0.079300
     80 HED1       76.2791   52.3559   37.1962 dc         1 CLA      0.079300
     81 HBC3       72.4560   55.6249   43.5193 dc         1 CLA      0.016300
     82 HBC2       70.6622   55.7495   43.5143 dc         1 CLA      0.016300
     83 HBC1       71.4752   55.3980   41.9519 dc         1 CLA      0.016300
     84 HBB2       79.1582   61.8536   45.0703 da         1 CLA      0.183000
     85 HBB1       80.0861   61.0852   43.6449 da         1 CLA      0.183000
     86 HBA2       78.9670   58.7973   32.4077 dc         1 CLA      0.029400
     87 HBA1       79.9310   58.7746   33.7637 dc         1 CLA      0.029400
     88 HAC2       71.2158   57.7294   43.9231 dc         1 CLA      0.029300
     89 HAC1       70.6589   57.7601   42.2062 dc         1 CLA      0.029300
     90 HAA2       77.0411   57.6469   33.5402 dc         1 CLA      0.028700
     91 HAA1       77.4746   59.3861   34.0735 dc         1 CLA      0.028700
     92 H203       84.6747   61.3699   45.4876 dc         1 CLA      0.065600
     93 H202       84.3638   60.5408   43.9132 dc         1 CLA      0.065600
     94 H201       83.1160   60.5910   45.1139 dc         1 CLA      0.065600
     95 H193       86.7819   60.0031   45.7901 dc         1 CLA      0.065600
     96 H192       86.5818   58.4161   46.1614 dc         1 CLA      0.065600
     97 H191       86.6422   58.8390   44.4173 dc         1 CLA      0.065600
     98 H172       82.9368   57.9395   45.3845 dc         1 CLA      0.027600
     99 H171       84.4878   57.0994   45.5123 dc         1 CLA      0.027600
    100 H162       84.9099   57.7909   43.1868 dc         1 CLA      0.002900
    101 H161       83.2993   58.5758   43.2381 dc         1 CLA      0.002900
    102 H152       82.2242   56.4016   43.5839 dc         1 CLA      0.029100
    103 H151       83.9517   55.7569   43.3892 dc         1 CLA      0.029100
    104 H143       82.1535   58.4823   41.3519 dc         1 CLA      0.063600
    105 H142       81.7861   57.5017   40.0233 dc         1 CLA      0.063600
    106 H141       80.8633   57.1506   41.4972 dc         1 CLA      0.063600
    107 H122       84.8997   55.9783   41.4225 dc         1 CLA      0.032500
    108 H121       84.3514   57.6047   40.7963 dc         1 CLA      0.032500
    109 H112       83.3688   56.3874   38.7525 dc         1 CLA      0.006600
    110 H111       83.8290   54.8657   39.4602 dc         1 CLA      0.006600
    111 H102       86.1700   54.9726   38.7510 dc         1 CLA      0.024100
    112 H101       86.0252   56.7463   38.8700 dc         1 CLA      0.024100
    113 HHD        71.3663   56.9797   40.2963 da         1 CLA      0.174300
    114 HHC        75.7209   60.4875   43.2558 da         1 CLA      0.136800
    115 HHB        79.8152   60.1947   38.5247 da         1 CLA      0.138300
    116 HBD        75.2063   56.5290   34.1032 dc         1 CLA      0.107700
    117 HAB        77.3669   62.4503   43.6524 da         1 CLA      0.155200
    118 H93        86.3994   56.7030   35.3752 dc         1 CLA      0.069500
    119 H92        86.5745   57.7785   36.7639 dc         1 CLA      0.069500
    120 H91        87.4262   56.2989   36.6815 dc         1 CLA      0.069500
    121 H8         84.5127   56.7594   36.9659 dc         1 CLA      0.029300
    122 H72        84.2976   54.2458   37.0317 dc         1 CLA      0.044400
    123 H71        85.8735   53.9816   36.3134 dc         1 CLA      0.044400
    124 H62        85.3674   54.8345   34.2579 dc         1 CLA      0.015600
    125 H61        83.7509   55.6245   34.8702 dc         1 CLA      0.015600
    126 H52        84.2874   52.6362   34.6770 dc         1 CLA      0.033200
    127 H51        83.6313   53.6293   33.4074 dc         1 CLA      0.033200
    128 H43        80.8577   51.8403   35.5484 dc         1 CLA      0.037000
    129 H42        82.1887   51.2070   34.7126 dc         1 CLA      0.037000
    130 H41        82.3436   51.6858   36.3945 dc         1 CLA      0.037000
    131 H3A        79.4487   59.4572   35.9467 dc         1 CLA      0.041100
    132 H2A        78.2931   56.7944   35.5631 dc         1 CLA      0.083100
    133 H2         81.4553   55.0304   35.9643 da         1 CLA      0.180900
    134 H18        84.3807   59.2469   46.6536 dc         1 CLA     -0.003900
    135 H13        82.6100   55.5047   41.4803 dc         1 CLA      0.019700
    136 H12        79.7871   54.2474   33.7655 dc         1 CLA      0.120400
    137 H11        81.3395   54.7568   33.0485 dc         1 CLA      0.120400
    138 C1         67.8243   61.2036   49.9987 Z1         2 LUT      0.509236
    139 C2         67.8995   62.6306   50.7199 Z2         2 LUT     -0.434695
    140 C3         66.6842   63.4791   50.8498 Z3         2 LUT      0.437453
    141 O3         66.9870   64.8433   50.9983 S1         2 LUT     -0.547129
    142 C4         65.7517   63.2385   49.6523 Z4         2 LUT     -0.468603
    143 C5         66.3388   62.5504   48.4415 Z5         2 LUT      0.279246
    144 C6         67.3029   61.5821   48.5714 Z6         2 LUT     -0.305473
    145 C7         68.1763   61.1954   47.4739 Z7         2 LUT      0.069402
    146 C8         68.7921   61.9044   46.5235 Z8         2 LUT     -0.191631
    147 C9         69.3834   61.3847   45.3656 Z9         2 LUT      0.196698
    148 C10        70.3055   62.1403   44.7483 Y1         2 LUT     -0.208611
    149 C11        70.9557   61.9815   43.4867 Y2         2 LUT      0.030784
    150 C12        71.9833   62.7223   43.0757 Y3         2 LUT     -0.220316
    151 C13        72.8069   62.7370   41.8865 Y4         2 LUT      0.215937
    152 C14        73.9847   63.4285   41.9541 Y5         2 LUT     -0.185793
    153 C15        75.0194   63.4853   40.9500 Y6         2 LUT     -0.057835
    154 C16        66.8340   60.3595   50.8673 Y7         2 LUT     -0.405615
    155 C17        69.2229   60.4984   50.1858 Y7         2 LUT     -0.405615
    156 C18        66.1798   63.4104   47.2137 Y9         2 LUT     -0.369639
    157 C19        69.0868   59.9841   44.9136 W1         2 LUT     -0.333362
    158 C20        72.3908   61.9572   40.6733 W2         2 LUT     -0.323439
    159 C21        86.5613   65.1355   33.9723 Z1         2 LUT      0.406104
    160 C22        87.2095   64.6964   32.6205 Z2         2 LUT     -0.404965
    161 C23        87.1137   65.8246   31.5482 Z3         2 LUT      0.391255
    162 O23        87.7899   65.2275   30.4331 S1         2 LUT     -0.528210
    163 C24        85.8073   66.3961   31.4502 W6         2 LUT     -0.258361
    164 C25        84.8665   66.3762   32.4352 Z5         2 LUT      0.133546
    165 C26        85.1038   65.5730   33.7515 W8         2 LUT     -0.147008
    166 C27        84.3826   66.1123   34.9584 Z7         2 LUT      0.023843
    167 C28        83.3900   65.4992   35.6985 Z8         2 LUT     -0.216987
    168 C29        82.7225   65.9622   36.8773 Z9         2 LUT      0.206524
    169 C30        81.5203   65.2777   37.2116 Y1         2 LUT     -0.215556
    170 C31        80.6033   65.4656   38.3197 Y2         2 LUT      0.025142
    171 C32        79.3757   64.8234   38.6173 Y3         2 LUT     -0.212209
    172 C33        78.3793   65.1234   39.7413 Y4         2 LUT      0.240937
    173 C34        77.2340   64.3097   39.8802 Y5         2 LUT     -0.218862
    174 C35        76.2266   64.2262   40.9112 Y6         2 LUT     -0.023547
    175 C36        87.4504   66.2059   34.5913 Y7         2 LUT     -0.393485
    176 C37        86.6531   64.0053   35.0041 Y7         2 LUT     -0.393485
    177 C38        83.5360   67.0555   32.3324 Y9         2 LUT     -0.387526
    178 C39        83.4935   67.0236   37.8267 W1         2 LUT     -0.322618
    179 C40        78.6466   66.3211   40.6830 W2         2 LUT     -0.358472
    180 H403       77.9887   66.3157   41.5375 R7         2 LUT      0.097720
    181 H402       79.6443   66.3065   41.1754 R7         2 LUT      0.097720
    182 H401       78.6994   67.2443   40.1444 R7         2 LUT      0.097720
    183 H393       82.7340   67.2658   38.6648 R4         2 LUT      0.082505
    184 H392       84.4131   66.6385   38.3508 R4         2 LUT      0.082505
    185 H391       83.7083   67.8627   37.1803 R4         2 LUT      0.082505
    186 H383       82.7559   66.4953   32.8435 R1         2 LUT      0.104030
    187 H382       83.5206   68.0813   32.6968 R1         2 LUT      0.104030
    188 H381       83.3175   67.0633   31.3422 R1         2 LUT      0.104030
    189 H373       86.1702   63.1485   34.6227 T4         2 LUT      0.089537
    190 H372       87.6412   63.7536   35.2598 T4         2 LUT      0.089537
    191 H371       86.1813   64.1818   35.9884 T4         2 LUT      0.089537
    192 H363       88.4494   65.9400   34.7566 T4         2 LUT      0.089537
    193 H362       87.4124   67.0982   33.9074 T4         2 LUT      0.089537
    194 H361       87.1628   66.5167   35.5944 T4         2 LUT      0.089537
    195 H222       88.2145   64.3396   32.6992 U2         2 LUT      0.127376
    196 H221       86.9203   63.6771   32.3480 U2         2 LUT      0.127376
    197 H203       73.2328   61.7635   39.9831 R7         2 LUT      0.087068
    198 H202       72.0649   60.9478   40.9199 R7         2 LUT      0.087068
    199 H201       71.7212   62.4503   39.9782 R7         2 LUT      0.087068
    200 H193       68.0717   59.6186   45.0912 R4         2 LUT      0.089716
    201 H192       69.1470   60.0175   43.8093 R4         2 LUT      0.089716
    202 H191       69.8372   59.2760   45.2763 R4         2 LUT      0.089716
    203 H183       65.2734   63.9985   47.3575 R1         2 LUT      0.094572
    204 H182       66.9067   64.1230   47.2541 R1         2 LUT      0.094572
    205 H181       66.1832   62.9422   46.1984 R1         2 LUT      0.094572
    206 H173       69.5241   60.6648   51.1398 T4         2 LUT      0.093752
    207 H172       69.1913   59.4090   50.0410 T4         2 LUT      0.093752
    208 H171       70.0982   60.8492   49.5715 T4         2 LUT      0.093752
    209 H163       65.8011   60.7038   50.8639 T4         2 LUT      0.093752
    210 H162       66.8589   59.3698   50.2870 T4         2 LUT      0.093752
    211 H161       67.1709   60.2526   51.9249 T4         2 LUT      0.093752
    212 HO3        66.3880   65.2792   51.6095 Q1         2 LUT      0.300121
    213 H8         68.6990   63.0181   46.4981 U7         2 LUT      0.080784
    214 H7         68.1785   60.1465   47.3877 U6         2 LUT      0.042190
    215 H42        64.7784   62.8678   49.8771 U5         2 LUT      0.145166
    216 H41        65.4765   64.2561   49.2925 U5         2 LUT      0.145166
    217 H35        76.2681   64.9435   41.6918 T3         2 LUT      0.077919
    218 H34        77.0565   63.5569   39.1580 T2         2 LUT      0.073626
    219 H32        79.0144   64.0734   37.9166 T1         2 LUT      0.092510
    220 H31        80.9822   66.1616   39.1437 U9         2 LUT      0.070048
    221 H30        81.1656   64.6817   36.3965 U8         2 LUT      0.085442
    222 H3         66.0710   63.0018   51.6703 U3         2 LUT     -0.031596
    223 H28        83.0207   64.6445   35.1488 U7         2 LUT      0.084728
    224 H27        84.7748   67.0355   35.4028 U6         2 LUT      0.087291
    225 H26        84.6601   64.5772   33.4811 Q6         2 LUT      0.075325
    226 H24        85.6846   66.8770   30.5053 Q5         2 LUT      0.094482
    227 H23        87.7719   66.5863   31.8048 U3         2 LUT     -0.024869
    228 H22        68.5381   62.7088   51.5705 U2         2 LUT      0.127376
    229 H21        68.6145   63.2097   50.1752 U2         2 LUT      0.127376
    230 H15        74.8826   62.9955   39.9990 T3         2 LUT      0.093200
    231 H14        74.1843   63.8888   42.8877 T2         2 LUT      0.068865
    232 H12        72.3176   63.4243   43.8111 T1         2 LUT      0.095507
    233 H11        70.6839   61.2368   42.7412 U9         2 LUT      0.068930
    234 H10        70.4840   63.0826   45.2097 U8         2 LUT      0.083911
    235 H1         87.1967   64.6853   29.8540 Q1         2 LUT      0.297311
@<TRIPOS>BOND
    1     6     1 1
    2     7     2 1
    3     8     3 1
    4     9     4 1
    5    11     4 1
    6    12     6 1
    7    13     9 1
    8    16     9 1
    9    25     5 1
   10    25    16 1
   11    26    10 1
   12    26    17 1
   13    27    18 1
   14    28    14 1
   15    28    19 1
   16    29    12 1
   17    30    13 1
   18    31    24 1
   19    32     1 1
   20    32    25 1
   21    33    21 1
   22    33    26 1
   23    34    22 1
   24    34    27 1
   25    35    23 1
   26    35    28 1
   27    36    12 1
   28    36    24 1
   29    37    13 1
   30    37    15 1
   31    38    31 1
   32    39    20 1
   33    39    32 1
   34    40     2 1
   35    40    33 1
   36    41     3 1
   37    41    34 1
   38    42     4 1
   39    42    35 1
   40    43    38 1
   41    44     5 1
   42    44    17 1
   43    44    39 1
   44    45    10 1
   45    45    18 1
   46    45    40 1
   47    46    19 1
   48    46    41 1
   49    47    14 1
   50    47    16 1
   51    47    42 1
   52    48    38 1
   53    49    48 1
   54    50    49 1
   55    51    50 1
   56    52    51 1
   57    53    51 1
   58    54    53 1
   59    55    54 1
   60    56    55 1
   61    57    56 1
   62    58    56 1
   63    59    58 1
   64    60    59 1
   65    61    60 1
   66    62    61 1
   67    63    61 1
   68    64    27 1
   69    64    46 1
   70    65     5 1
   71    65    10 1
   72    65    64 1
   73    65    14 1
   74    66    23 1
   75    67    23 1
   76    68    23 1
   77    69    22 1
   78    70    22 1
   79    71    22 1
   80    72    21 1
   81    73    21 1
   82    74    21 1
   83    75    20 1
   84    76    20 1
   85    77    20 1
   86    78    15 1
   87    79    15 1
   88    80    15 1
   89    81     8 1
   90    82     8 1
   91    83     8 1
   92    84     7 1
   93    85     7 1
   94    86     6 1
   95    87     6 1
   96    88     3 1
   97    89     3 1
   98    90     1 1
   99    91     1 1
  100    92    63 1
  101    93    63 1
  102    94    63 1
  103    95    62 1
  104    96    62 1
  105    97    62 1
  106    98    60 1
  107    99    60 1
  108   100    59 1
  109   101    59 1
  110   102    58 1
  111   103    58 1
  112   104    57 1
  113   105    57 1
  114   106    57 1
  115   107    55 1
  116   108    55 1
  117   109    54 1
  118   110    54 1
  119   111    53 1
  120   112    53 1
  121   113    19 1
  122   114    18 1
  123   115    17 1
  124   116     9 1
  125   117     2 1
  126   118    52 1
  127   119    52 1
  128   120    52 1
  129   121    51 1
  130   122    50 1
  131   123    50 1
  132   124    49 1
  133   125    49 1
  134   126    48 1
  135   127    48 1
  136   128    43 1
  137   129    43 1
  138   130    43 1
  139   131    39 1
  140   132    32 1
  141   133    31 1
  142   134    61 1
  143   135    56 1
  144   136    24 1
  145   137    24 1
  146   139   138 1
  147   140   139 1
  148   141   140 1
  149   142   140 1
  150   143   142 1
  151   144   138 1
  152   144   143 1
  153   145   144 1
  154   146   145 1
  155   147   146 1
  156   148   147 1
  157   149   148 1
  158   150   149 1
  159   151   150 1
  160   152   151 1
  161   153   152 1
  162   154   138 1
  163   155   138 1
  164   156   143 1
  165   157   147 1
  166   158   151 1
  167   160   159 1
  168   161   160 1
  169   162   161 1
  170   163   161 1
  171   164   163 1
  172   165   159 1
  173   165   164 1
  174   166   165 1
  175   167   166 1
  176   168   167 1
  177   169   168 1
  178   170   169 1
  179   171   170 1
  180   172   171 1
  181   173   172 1
  182   174   153 1
  183   174   173 1
  184   175   159 1
  185   176   159 1
  186   177   164 1
  187   178   168 1
  188   179   172 1
  189   180   179 1
  190   181   179 1
  191   182   179 1
  192   183   178 1
  193   184   178 1
  194   185   178 1
  195   186   177 1
  196   187   177 1
  197   188   177 1
  198   189   176 1
  199   190   176 1
  200   191   176 1
  201   192   175 1
  202   193   175 1
  203   194   175 1
  204   195   160 1
  205   196   160 1
  206   197   158 1
  207   198   158 1
  208   199   158 1
  209   200   157 1
  210   201   157 1
  211   202   157 1
  212   203   156 1
  213   204   156 1
  214   205   156 1
  215   206   155 1
  216   207   155 1
  217   208   155 1
  218   209   154 1
  219   210   154 1
  220   211   154 1
  221   212   141 1
  222   213   146 1
  223   214   145 1
  224   215   142 1
  225   216   142 1
  226   217   174 1
  227   218   173 1
  228   219   171 1
  229   220   170 1
  230   221   169 1
  231   222   140 1
  232   223   167 1
  233   224   166 1
  234   225   165 1
  235   226   163 1
  236   227   161 1
  237   228   139 1
  238   229   139 1
  239   230   153 1
  240   231   152 1
  241   232   150 1
  242   233   149 1
  243   234   148 1
  244   235   162 1
  245   65    153 1
  246   65    174 1
@<TRIPOS>SUBSTRUCTURE
      1 CLA               1 ****               0 ****  **** 
      2 LUT             138 ****               0 ****  **** 
