@<TRIPOS>MOLECULE
Cpptraj generated mol2 file.
  235   246     2     0     0
SMALL
USER_CHARGES


@<TRIPOS>ATOM
      1 CAA        78.6684   58.9242   34.3011 a2         1 CLA     -0.055900
      2 CAB        78.9088   62.5406   43.0718 c8         1 CLA     -0.148500
      3 CAC        72.0404   58.4243   43.0276 a2         1 CLA     -0.012600
      4 CAD        74.0586   56.6797   35.2551 ck         1 CLA      0.398800
      5 NA         77.8002   58.7507   37.6774 ns         1 CLA     -0.225500
      6 CBA        79.9857   58.6949   33.4396 a2         1 CLA     -0.135000
      7 CBB        79.7774   62.2575   44.0871 c0         1 CLA     -0.395200
      8 CBC        72.1055   56.8388   43.1043 a3         1 CLA     -0.037700
      9 CBD        75.5233   57.0873   34.9125 a1         1 CLA     -0.053900
     10 NB         77.8213   60.2217   40.2351 nm         1 CLA     -0.295700
     11 OBD        73.2878   56.1246   34.4869 o2         1 CLA     -0.494600
     12 CGA        80.1629   57.2673   32.8678 c4         1 CLA      0.827000
     13 CGD        76.2903   55.8889   34.3000 c4         1 CLA      0.655300
     14 ND         74.8402   58.2225   38.2730 nm         1 CLA     -0.291600
     15 CED        76.9476   53.5713   34.6762 a3         1 CLA      0.005400
     16 CHA        76.1772   57.7219   36.2258 cs         1 CLA     -0.123800
     17 CHB        79.6698   59.8346   38.7052 aa         1 CLA     -0.291900
     18 CHC        76.4948   60.7763   42.2993 aa         1 CLA     -0.090400
     19 CHD        73.1121   58.0879   40.0131 aa         1 CLA     -0.052000
     20 CMA        80.9229   57.5181   36.9805 a3         1 CLA     -0.230700
     21 CMB        81.0528   61.8177   40.8337 a3         1 CLA     -0.180800
     22 CMC        74.4090   60.1813   44.5287 a3         1 CLA     -0.134000
     23 CMD        71.3104   57.0708   37.5557 a3         1 CLA     -0.141100
     24 C1         80.8764   55.0847   33.4410 a2         1 CLA      0.023000
     25 C1A        77.5019   58.0777   36.5495 ac         1 CLA     -0.015100
     26 C1B        79.0954   60.5111   39.8755 cr         1 CLA      0.054700
     27 C1C        75.3012   60.0373   42.0881 cn         1 CLA     -0.005600
     28 C1D        73.5568   57.8771   38.6964 ap         1 CLA     -0.047300
     29 O1A        79.9394   56.8735   31.7507 o2         1 CLA     -0.610800
     30 O1D        76.9669   55.8838   33.2771 o2         1 CLA     -0.558200
     31 C2         81.3763   54.4064   34.6830 c8         1 CLA     -0.325100
     32 C2A        78.7612   58.0694   35.6162 a1         1 CLA      0.098600
     33 C2B        79.7082   61.3270   40.9004 cb         1 CLA      0.088500
     34 C2C        74.2845   59.7795   43.0945 cb         1 CLA      0.053700
     35 C2D        72.7903   57.2938   37.6216 cb         1 CLA      0.058900
     36 O2A        80.7864   56.4816   33.7962 o1         1 CLA     -0.437200
     37 O2D        76.2376   54.8033   35.1176 o1         1 CLA     -0.357600
     38 C3         82.1634   53.3101   34.7082 c5         1 CLA      0.031200
     39 C3A        79.9046   58.5979   36.5172 a1         1 CLA      0.166800
     40 C3B        78.7900   61.6392   41.8938 cb         1 CLA      0.035000
     41 C3C        73.3666   58.9434   42.4417 cb         1 CLA     -0.089900
     42 C3D        73.8158   57.1985   36.6532 cb         1 CLA     -0.035900
     43 C4         81.6145   51.8968   34.7386 a3         1 CLA     -0.053300
     44 C4A        79.0918   58.9938   37.7613 ac         1 CLA      0.001800
     45 C4B        77.6087   60.9353   41.4478 cn         1 CLA     -0.020900
     46 C4C        73.8136   58.7850   41.0426 cr         1 CLA     -0.044400
     47 C4D        75.0326   57.7508   37.0436 c6         1 CLA     -0.046000
     48 C5         83.6953   53.5123   34.6774 a2         1 CLA     -0.070400
     49 C6         84.2453   54.7425   35.3975 a2         1 CLA      0.043900
     50 C7         84.1524   54.7324   36.8958 a2         1 CLA     -0.150000
     51 C8         84.8551   55.9596   37.5693 a1         1 CLA      0.064200
     52 C9         86.3169   56.1405   37.1278 a3         1 CLA     -0.259300
     53 C10        84.7691   55.7780   39.1364 a2         1 CLA     -0.071900
     54 C11        83.2513   55.8092   39.7162 a2         1 CLA      0.014500
     55 C12        83.3085   56.2731   41.1857 a2         1 CLA     -0.112100
     56 C13        81.8818   56.6774   41.7627 a1         1 CLA      0.089200
     57 C14        81.3896   57.9878   41.2311 a3         1 CLA     -0.239100
     58 C15        81.9492   56.7096   43.3067 a2         1 CLA     -0.102200
     59 C16        82.8082   57.8492   43.8766 a2         1 CLA      0.023900
     60 C17        82.8289   57.7793   45.3931 a2         1 CLA     -0.105700
     61 C18        83.5426   58.9833   46.0724 a1         1 CLA      0.206800
     62 C19        84.9492   59.1188   45.5410 a3         1 CLA     -0.280100
     63 C20        82.7313   60.3128   45.9950 a3         1 CLA     -0.280100
     64 NC         75.0351   59.3591   40.9091 nx         1 CLA     -0.309200
     65 MG         76.3419   59.2738   39.2228 mg         1 CLA      0.895000
     66 HMD3       70.7601   57.9585   37.4289 dc         1 CLA      0.064300
     67 HMD2       71.0872   56.4171   36.7425 dc         1 CLA      0.064300
     68 HMD1       70.9635   56.5278   38.4464 dc         1 CLA      0.064300
     69 HMC3       73.4725   60.0136   45.1044 dc         1 CLA      0.052100
     70 HMC2       75.3033   59.7566   44.9130 dc         1 CLA      0.052100
     71 HMC1       74.5309   61.2558   44.5197 dc         1 CLA      0.052100
     72 HMB3       81.8376   61.0720   40.5032 dc         1 CLA      0.063600
     73 HMB2       81.0901   62.5081   39.9511 dc         1 CLA      0.063600
     74 HMB1       81.4211   62.4589   41.6174 dc         1 CLA      0.063600
     75 HMA3       80.3141   56.6348   37.3694 dc         1 CLA      0.058300
     76 HMA2       81.5403   57.0921   36.1626 dc         1 CLA      0.058300
     77 HMA1       81.4699   57.9026   37.7904 dc         1 CLA      0.058300
     78 HED3       77.8131   53.8140   34.1305 dc         1 CLA      0.079300
     79 HED2       77.2482   52.9944   35.5267 dc         1 CLA      0.079300
     80 HED1       76.3893   52.9740   33.9941 dc         1 CLA      0.079300
     81 HBC3       72.3259   56.5396   42.0842 dc         1 CLA      0.016300
     82 HBC2       72.8599   56.7179   43.9039 dc         1 CLA      0.016300
     83 HBC1       71.1564   56.4600   43.4642 dc         1 CLA      0.016300
     84 HBB2       79.7649   62.8808   44.9146 da         1 CLA      0.183000
     85 HBB1       80.3313   61.2745   44.2258 da         1 CLA      0.183000
     86 HBA2       79.9066   59.3382   32.5559 dc         1 CLA      0.029400
     87 HBA1       80.9142   58.8910   33.9626 dc         1 CLA      0.029400
     88 HAC2       71.8895   58.6788   44.0677 dc         1 CLA      0.029300
     89 HAC1       71.2338   58.8009   42.3622 dc         1 CLA      0.029300
     90 HAA2       77.8789   58.5630   33.7548 dc         1 CLA      0.028700
     91 HAA1       78.4463   59.9223   34.5332 dc         1 CLA      0.028700
     92 H203       83.4290   61.0973   46.3216 dc         1 CLA      0.065600
     93 H202       82.4304   60.5938   45.0383 dc         1 CLA      0.065600
     94 H201       81.8790   60.3249   46.6641 dc         1 CLA      0.065600
     95 H193       85.4011   58.2028   45.2214 dc         1 CLA      0.065600
     96 H192       84.9922   59.8947   44.7842 dc         1 CLA      0.065600
     97 H191       85.4787   59.4783   46.4041 dc         1 CLA      0.065600
     98 H172       81.8146   57.6089   45.6992 dc         1 CLA      0.027600
     99 H171       83.4566   56.9176   45.6872 dc         1 CLA      0.027600
    100 H162       83.8102   57.6575   43.5368 dc         1 CLA      0.002900
    101 H161       82.4513   58.8070   43.5773 dc         1 CLA      0.002900
    102 H152       80.9253   56.9517   43.6537 dc         1 CLA      0.029100
    103 H151       82.3071   55.7218   43.6623 dc         1 CLA      0.029100
    104 H143       80.6882   58.4720   41.8871 dc         1 CLA      0.063600
    105 H142       82.2192   58.6781   41.0996 dc         1 CLA      0.063600
    106 H141       80.8832   57.9825   40.3114 dc         1 CLA      0.063600
    107 H122       83.7399   55.5685   41.7735 dc         1 CLA      0.032500
    108 H121       83.9768   57.0909   41.2209 dc         1 CLA      0.032500
    109 H112       82.7694   56.6196   39.1916 dc         1 CLA      0.006600
    110 H111       82.6209   54.8867   39.6172 dc         1 CLA      0.006600
    111 H102       85.2372   54.8222   39.4441 dc         1 CLA      0.024100
    112 H101       85.3472   56.5944   39.5606 dc         1 CLA      0.024100
    113 HHD        72.0340   57.7908   40.2706 da         1 CLA      0.174300
    114 HHC        76.5064   61.2732   43.2849 da         1 CLA      0.136800
    115 HHB        80.7189   60.0945   38.5397 da         1 CLA      0.138300
    116 HBD        75.4888   57.7961   34.1569 dc         1 CLA      0.107700
    117 HAB        78.2828   63.4403   43.1794 da         1 CLA      0.155200
    118 H93        86.8525   56.6198   37.9114 dc         1 CLA      0.069500
    119 H92        86.8297   55.2417   36.9442 dc         1 CLA      0.069500
    120 H91        86.2794   56.9500   36.4286 dc         1 CLA      0.069500
    121 H8         84.2295   56.8695   37.2980 dc         1 CLA      0.029300
    122 H72        83.0572   54.7153   37.0109 dc         1 CLA      0.044400
    123 H71        84.5826   53.8004   37.1295 dc         1 CLA      0.044400
    124 H62        85.3168   54.6486   35.1436 dc         1 CLA      0.015600
    125 H61        83.8424   55.6772   34.9654 dc         1 CLA      0.015600
    126 H52        84.0630   52.6675   35.2720 dc         1 CLA      0.033200
    127 H51        84.1958   53.5612   33.7088 dc         1 CLA      0.033200
    128 H43        81.9823   51.3116   33.8427 dc         1 CLA      0.037000
    129 H42        81.9471   51.3283   35.6496 dc         1 CLA      0.037000
    130 H41        80.5491   51.9985   34.8038 dc         1 CLA      0.037000
    131 H3A        80.4401   59.3983   36.0839 dc         1 CLA      0.041100
    132 H2A        78.9127   57.0139   35.4192 dc         1 CLA      0.083100
    133 H2         81.0876   54.7639   35.7036 da         1 CLA      0.180900
    134 H18        83.5515   58.7418   47.1735 dc         1 CLA     -0.003900
    135 H13        81.2193   55.8925   41.5685 dc         1 CLA      0.019700
    136 H12        79.8513   54.7533   33.4106 dc         1 CLA      0.120400
    137 H11        81.4702   54.8805   32.5432 dc         1 CLA      0.120400
    138 C1         68.6311   61.6144   50.0034 Z1         2 LUT      0.509236
    139 C2         67.1863   61.3766   50.5428 Z2         2 LUT     -0.434695
    140 C3         66.3667   62.6008   50.9516 Z3         2 LUT      0.437453
    141 O3         66.7058   63.1859   52.2336 S1         2 LUT     -0.547129
    142 C4         66.4308   63.7516   49.9066 Z4         2 LUT     -0.468603
    143 C5         67.3036   63.3625   48.7243 Z5         2 LUT      0.279246
    144 C6         68.3316   62.4665   48.7281 Z6         2 LUT     -0.305473
    145 C7         68.7171   62.0434   47.4027 Z7         2 LUT      0.069402
    146 C8         69.6978   62.4456   46.5675 Z8         2 LUT     -0.191631
    147 C9         70.1293   62.1610   45.2019 Z9         2 LUT      0.196698
    148 C10        71.3002   62.7681   44.8125 Y1         2 LUT     -0.208611
    149 C11        72.0204   62.6040   43.6459 Y2         2 LUT      0.030784
    150 C12        73.2058   63.2283   43.3938 Y3         2 LUT     -0.220316
    151 C13        73.9670   63.1712   42.1784 Y4         2 LUT      0.215937
    152 C14        75.1211   63.8957   42.1599 Y5         2 LUT     -0.185793
    153 C15        76.1048   63.8947   41.1202 Y6         2 LUT     -0.057835
    154 C16        69.3400   60.2851   49.7458 Y7         2 LUT     -0.405615
    155 C17        69.4585   62.6433   50.8738 Y7         2 LUT     -0.405615
    156 C18        66.8804   64.1678   47.4836 Y9         2 LUT     -0.369639
    157 C19        69.4452   61.0948   44.3530 W1         2 LUT     -0.333362
    158 C20        73.4606   62.3811   40.9504 W2         2 LUT     -0.323439
    159 C21        87.4010   65.6817   35.0614 Z1         2 LUT      0.406104
    160 C22        88.1475   65.0788   33.8088 Z2         2 LUT     -0.404965
    161 C23        88.2169   66.0009   32.5668 Z3         2 LUT      0.391255
    162 O23        88.6978   65.1429   31.5539 S1         2 LUT     -0.528210
    163 C24        86.8686   66.7142   32.4672 W6         2 LUT     -0.258361
    164 C25        85.8250   66.6674   33.3215 Z5         2 LUT      0.133546
    165 C26        85.8899   65.8882   34.6520 W8         2 LUT     -0.147008
    166 C27        85.0336   66.6126   35.7499 Z7         2 LUT      0.023843
    167 C28        84.0459   65.9733   36.3624 Z8         2 LUT     -0.216987
    168 C29        83.3558   66.6778   37.4633 Z9         2 LUT      0.206524
    169 C30        82.3143   66.0136   37.9683 Y1         2 LUT     -0.215556
    170 C31        81.5061   66.2785   39.0565 Y2         2 LUT      0.025142
    171 C32        80.3423   65.5733   39.2114 Y3         2 LUT     -0.212209
    172 C33        79.3714   65.6757   40.2760 Y4         2 LUT      0.240937
    173 C34        78.2895   64.9117   40.2749 Y5         2 LUT     -0.218862
    174 C35        77.1794   64.8119   41.2191 Y6         2 LUT     -0.023547
    175 C36        88.2617   66.9116   35.4062 Y7         2 LUT     -0.393485
    176 C37        87.6478   64.7164   36.2025 Y7         2 LUT     -0.393485
    177 C38        84.5745   67.4668   32.9996 Y9         2 LUT     -0.387526
    178 C39        83.8634   67.9604   37.9442 W1         2 LUT     -0.322618
    179 C40        79.6936   66.5843   41.4224 W2         2 LUT     -0.358472
    180 H403       80.7559   66.6097   41.7148 R7         2 LUT      0.097720
    181 H402       79.5401   67.6017   41.1806 R7         2 LUT      0.097720
    182 H401       79.0083   66.5334   42.3000 R7         2 LUT      0.097720
    183 H393       84.9185   68.0008   38.0702 R4         2 LUT      0.082505
    184 H392       83.7407   68.6967   37.1928 R4         2 LUT      0.082505
    185 H391       83.4158   68.3354   38.8853 R4         2 LUT      0.082505
    186 H383       84.8461   68.4645   32.6633 R1         2 LUT      0.104030
    187 H382       84.0408   67.1387   32.0864 R1         2 LUT      0.104030
    188 H381       83.7606   67.5177   33.8103 R1         2 LUT      0.104030
    189 H373       87.4564   65.1976   37.2476 T4         2 LUT      0.089537
    190 H372       86.9300   63.8757   36.1377 T4         2 LUT      0.089537
    191 H371       88.6786   64.2908   36.2222 T4         2 LUT      0.089537
    192 H363       87.8945   67.4023   36.2773 T4         2 LUT      0.089537
    193 H362       89.3338   66.6479   35.5190 T4         2 LUT      0.089537
    194 H361       88.1004   67.7575   34.8138 T4         2 LUT      0.089537
    195 H222       89.2051   64.7525   34.1160 U2         2 LUT      0.127376
    196 H221       87.7537   64.0725   33.5647 U2         2 LUT      0.127376
    197 H203       72.8867   61.4747   41.2535 R7         2 LUT      0.087068
    198 H202       72.7433   62.8963   40.3497 R7         2 LUT      0.087068
    199 H201       74.2315   62.0444   40.2556 R7         2 LUT      0.087068
    200 H193       70.0437   60.2512   44.1360 R4         2 LUT      0.089716
    201 H192       68.5314   60.7761   44.7299 R4         2 LUT      0.089716
    202 H191       69.1339   61.5615   43.3691 R4         2 LUT      0.089716
    203 H183       65.9373   64.6273   47.6704 R1         2 LUT      0.094572
    204 H182       67.6686   64.9120   47.3979 R1         2 LUT      0.094572
    205 H181       66.7848   63.5514   46.5822 R1         2 LUT      0.094572
    206 H173       70.4977   62.5955   50.5774 T4         2 LUT      0.093752
    207 H172       69.1593   63.7279   50.7488 T4         2 LUT      0.093752
    208 H171       69.2893   62.4404   51.9557 T4         2 LUT      0.093752
    209 H163       70.3932   60.4262   49.6549 T4         2 LUT      0.093752
    210 H162       69.1651   59.6425   50.6300 T4         2 LUT      0.093752
    211 H161       69.0159   59.8695   48.7975 T4         2 LUT      0.093752
    212 HO3        66.4381   62.6779   53.0042 Q1         2 LUT      0.300121
    213 H8         70.1587   63.3269   46.9780 U7         2 LUT      0.080784
    214 H7         68.0272   61.1856   47.1357 U6         2 LUT      0.042190
    215 H42        65.3963   64.0546   49.5901 U5         2 LUT      0.145166
    216 H41        66.8737   64.6250   50.3492 U5         2 LUT      0.145166
    217 H35        77.1818   65.5385   42.0250 T3         2 LUT      0.077919
    218 H34        77.9921   64.3158   39.3375 T2         2 LUT      0.073626
    219 H32        80.2124   64.8202   38.4398 T1         2 LUT      0.092510
    220 H31        81.7114   67.0471   39.7468 U9         2 LUT      0.070048
    221 H30        82.0439   65.1574   37.3260 U8         2 LUT      0.085442
    222 H3         65.3285   62.3786   50.9917 U3         2 LUT     -0.031596
    223 H28        83.9068   64.9128   36.1661 U7         2 LUT      0.084728
    224 H27        85.3796   67.6263   35.9758 U6         2 LUT      0.087291
    225 H26        85.4383   64.8482   34.5030 Q6         2 LUT      0.075325
    226 H24        86.8354   67.2814   31.5364 Q5         2 LUT      0.094482
    227 H23        89.0413   66.7586   32.7319 U3         2 LUT     -0.024869
    228 H22        66.5566   60.8441   49.8492 U2         2 LUT      0.127376
    229 H21        67.2310   60.6691   51.3720 U2         2 LUT      0.127376
    230 H15        76.0985   63.3165   40.2015 T3         2 LUT      0.093200
    231 H14        75.3034   64.5425   43.0206 T2         2 LUT      0.068865
    232 H12        73.6086   63.7328   44.2739 T1         2 LUT      0.095507
    233 H11        71.5749   62.0824   42.8418 U9         2 LUT      0.068930
    234 H10        71.7572   63.4076   45.4786 U8         2 LUT      0.083911
    235 H1         88.7632   65.6532   30.7117 Q1         2 LUT      0.297311
@<TRIPOS>BOND
    1     6     1 1
    2     7     2 1
    3     8     3 1
    4     9     4 1
    5    11     4 1
    6    12     6 1
    7    13     9 1
    8    16     9 1
    9    25     5 1
   10    25    16 1
   11    26    10 1
   12    26    17 1
   13    27    18 1
   14    28    14 1
   15    28    19 1
   16    29    12 1
   17    30    13 1
   18    31    24 1
   19    32     1 1
   20    32    25 1
   21    33    21 1
   22    33    26 1
   23    34    22 1
   24    34    27 1
   25    35    23 1
   26    35    28 1
   27    36    12 1
   28    36    24 1
   29    37    13 1
   30    37    15 1
   31    38    31 1
   32    39    20 1
   33    39    32 1
   34    40     2 1
   35    40    33 1
   36    41     3 1
   37    41    34 1
   38    42     4 1
   39    42    35 1
   40    43    38 1
   41    44     5 1
   42    44    17 1
   43    44    39 1
   44    45    10 1
   45    45    18 1
   46    45    40 1
   47    46    19 1
   48    46    41 1
   49    47    14 1
   50    47    16 1
   51    47    42 1
   52    48    38 1
   53    49    48 1
   54    50    49 1
   55    51    50 1
   56    52    51 1
   57    53    51 1
   58    54    53 1
   59    55    54 1
   60    56    55 1
   61    57    56 1
   62    58    56 1
   63    59    58 1
   64    60    59 1
   65    61    60 1
   66    62    61 1
   67    63    61 1
   68    64    27 1
   69    64    46 1
   70    65     5 1
   71    65    10 1
   72    65    64 1
   73    65    14 1
   74    66    23 1
   75    67    23 1
   76    68    23 1
   77    69    22 1
   78    70    22 1
   79    71    22 1
   80    72    21 1
   81    73    21 1
   82    74    21 1
   83    75    20 1
   84    76    20 1
   85    77    20 1
   86    78    15 1
   87    79    15 1
   88    80    15 1
   89    81     8 1
   90    82     8 1
   91    83     8 1
   92    84     7 1
   93    85     7 1
   94    86     6 1
   95    87     6 1
   96    88     3 1
   97    89     3 1
   98    90     1 1
   99    91     1 1
  100    92    63 1
  101    93    63 1
  102    94    63 1
  103    95    62 1
  104    96    62 1
  105    97    62 1
  106    98    60 1
  107    99    60 1
  108   100    59 1
  109   101    59 1
  110   102    58 1
  111   103    58 1
  112   104    57 1
  113   105    57 1
  114   106    57 1
  115   107    55 1
  116   108    55 1
  117   109    54 1
  118   110    54 1
  119   111    53 1
  120   112    53 1
  121   113    19 1
  122   114    18 1
  123   115    17 1
  124   116     9 1
  125   117     2 1
  126   118    52 1
  127   119    52 1
  128   120    52 1
  129   121    51 1
  130   122    50 1
  131   123    50 1
  132   124    49 1
  133   125    49 1
  134   126    48 1
  135   127    48 1
  136   128    43 1
  137   129    43 1
  138   130    43 1
  139   131    39 1
  140   132    32 1
  141   133    31 1
  142   134    61 1
  143   135    56 1
  144   136    24 1
  145   137    24 1
  146   139   138 1
  147   140   139 1
  148   141   140 1
  149   142   140 1
  150   143   142 1
  151   144   138 1
  152   144   143 1
  153   145   144 1
  154   146   145 1
  155   147   146 1
  156   148   147 1
  157   149   148 1
  158   150   149 1
  159   151   150 1
  160   152   151 1
  161   153   152 1
  162   154   138 1
  163   155   138 1
  164   156   143 1
  165   157   147 1
  166   158   151 1
  167   160   159 1
  168   161   160 1
  169   162   161 1
  170   163   161 1
  171   164   163 1
  172   165   159 1
  173   165   164 1
  174   166   165 1
  175   167   166 1
  176   168   167 1
  177   169   168 1
  178   170   169 1
  179   171   170 1
  180   172   171 1
  181   173   172 1
  182   174   153 1
  183   174   173 1
  184   175   159 1
  185   176   159 1
  186   177   164 1
  187   178   168 1
  188   179   172 1
  189   180   179 1
  190   181   179 1
  191   182   179 1
  192   183   178 1
  193   184   178 1
  194   185   178 1
  195   186   177 1
  196   187   177 1
  197   188   177 1
  198   189   176 1
  199   190   176 1
  200   191   176 1
  201   192   175 1
  202   193   175 1
  203   194   175 1
  204   195   160 1
  205   196   160 1
  206   197   158 1
  207   198   158 1
  208   199   158 1
  209   200   157 1
  210   201   157 1
  211   202   157 1
  212   203   156 1
  213   204   156 1
  214   205   156 1
  215   206   155 1
  216   207   155 1
  217   208   155 1
  218   209   154 1
  219   210   154 1
  220   211   154 1
  221   212   141 1
  222   213   146 1
  223   214   145 1
  224   215   142 1
  225   216   142 1
  226   217   174 1
  227   218   173 1
  228   219   171 1
  229   220   170 1
  230   221   169 1
  231   222   140 1
  232   223   167 1
  233   224   166 1
  234   225   165 1
  235   226   163 1
  236   227   161 1
  237   228   139 1
  238   229   139 1
  239   230   153 1
  240   231   152 1
  241   232   150 1
  242   233   149 1
  243   234   148 1
  244   235   162 1
  245   65    153 1
  246   65    174 1
@<TRIPOS>SUBSTRUCTURE
      1 CLA               1 ****               0 ****  **** 
      2 LUT             138 ****               0 ****  **** 
