@<TRIPOS>MOLECULE
Cpptraj generated mol2 file.
  235   246     2     0     0
SMALL
USER_CHARGES


@<TRIPOS>ATOM
      1 CAA        78.0348   57.5633   35.0036 a2         1 CLA     -0.055900
      2 CAB        77.4259   61.4075   43.6709 c8         1 CLA     -0.148500
      3 CAC        70.9552   56.5439   43.1721 a2         1 CLA     -0.012600
      4 CAD        74.1237   54.6924   35.7606 ck         1 CLA      0.398800
      5 NA         76.9855   57.7802   38.2494 ns         1 CLA     -0.225500
      6 CBA        79.3329   57.6169   34.1583 a2         1 CLA     -0.135000
      7 CBB        78.4103   62.0595   44.4169 c0         1 CLA     -0.395200
      8 CBC        71.2674   55.0975   43.4932 a3         1 CLA     -0.037700
      9 CBD        75.6153   55.1305   35.6824 a1         1 CLA     -0.053900
     10 NB         76.6084   59.3983   40.6800 nm         1 CLA     -0.295700
     11 OBD        73.5200   54.1154   34.8899 o2         1 CLA     -0.494600
     12 CGA        80.0550   56.3389   33.8341 c4         1 CLA      0.827000
     13 CGD        76.6358   54.0183   35.7054 c4         1 CLA      0.655300
     14 ND         74.2894   56.5365   38.8325 nm         1 CLA     -0.291600
     15 CED        77.3837   52.2618   37.2164 a3         1 CLA      0.005400
     16 CHA        75.8387   56.0286   36.8790 cs         1 CLA     -0.123800
     17 CHB        78.6546   59.4058   39.2135 aa         1 CLA     -0.291900
     18 CHC        75.2613   59.3504   42.7408 aa         1 CLA     -0.090400
     19 CHD        72.4784   56.2262   40.3728 aa         1 CLA     -0.052000
     20 CMA        80.4537   57.3148   37.6652 a3         1 CLA     -0.230700
     21 CMB        79.6788   61.5536   41.2517 a3         1 CLA     -0.180800
     22 CMC        73.0467   58.4349   44.8271 a3         1 CLA     -0.134000
     23 CMD        71.5005   54.1442   38.0325 a3         1 CLA     -0.141100
     24 C1         81.2035   54.5011   34.8113 a2         1 CLA      0.023000
     25 C1A        76.9268   56.8968   37.1668 ac         1 CLA     -0.015100
     26 C1B        77.9092   59.8801   40.3506 cr         1 CLA      0.054700
     27 C1C        74.2502   58.4407   42.5104 cn         1 CLA     -0.005600
     28 C1D        73.1082   55.9887   39.1302 ap         1 CLA     -0.047300
     29 O1A        79.8929   55.6557   32.8258 o2         1 CLA     -0.610800
     30 O1D        77.6209   53.9378   34.9906 o2         1 CLA     -0.558200
     31 C2         81.9667   54.0992   36.0796 c8         1 CLA     -0.325100
     32 C2A        78.2580   57.0005   36.3587 a1         1 CLA      0.098600
     33 C2B        78.3545   60.7678   41.3711 cb         1 CLA      0.088500
     34 C2C        73.2074   58.0041   43.4299 cb         1 CLA      0.053700
     35 C2D        72.6283   55.1261   37.9910 cb         1 CLA      0.058900
     36 O2A        80.8083   55.8976   34.9341 o1         1 CLA     -0.437200
     37 O2D        76.4245   53.2171   36.8385 o1         1 CLA     -0.357600
     38 C3         82.6098   52.9211   36.2101 c5         1 CLA      0.031200
     39 C3A        79.1291   57.9289   37.2152 a1         1 CLA      0.166800
     40 C3B        77.4075   60.7175   42.3670 cb         1 CLA      0.035000
     41 C3C        72.2511   57.2413   42.6885 cb         1 CLA     -0.089900
     42 C3D        73.6535   55.2177   37.0637 cb         1 CLA     -0.035900
     43 C4         82.0008   51.7678   36.9569 a3         1 CLA     -0.053300
     44 C4A        78.1797   58.4239   38.2861 ac         1 CLA      0.001800
     45 C4B        76.3838   59.8098   41.9309 cn         1 CLA     -0.020900
     46 C4C        72.9059   57.0907   41.3635 cr         1 CLA     -0.044400
     47 C4D        74.6671   55.9968   37.6749 c6         1 CLA     -0.046000
     48 C5         84.1448   52.7759   35.7740 a2         1 CLA     -0.070400
     49 C6         85.0073   54.0551   35.9187 a2         1 CLA      0.043900
     50 C7         85.0765   54.5763   37.3233 a2         1 CLA     -0.150000
     51 C8         85.8441   55.9311   37.4787 a1         1 CLA      0.064200
     52 C9         87.3156   55.9041   37.1240 a3         1 CLA     -0.259300
     53 C10        85.8059   56.4498   38.9653 a2         1 CLA     -0.071900
     54 C11        84.3616   56.7526   39.4023 a2         1 CLA      0.014500
     55 C12        84.2131   57.7756   40.6215 a2         1 CLA     -0.112100
     56 C13        84.6984   57.2347   42.0106 a1         1 CLA      0.089200
     57 C14        83.9375   56.0109   42.5390 a3         1 CLA     -0.239100
     58 C15        84.8068   58.2871   43.0294 a2         1 CLA     -0.102200
     59 C16        83.4508   59.0277   43.3622 a2         1 CLA      0.023900
     60 C17        83.6024   59.9221   44.5930 a2         1 CLA     -0.105700
     61 C18        82.3311   60.5946   45.1541 a1         1 CLA      0.206800
     62 C19        81.3918   59.5835   45.7599 a3         1 CLA     -0.280100
     63 C20        82.7980   61.7449   46.0980 a3         1 CLA     -0.280100
     64 NC         74.0498   57.8670   41.2877 nx         1 CLA     -0.309200
     65 MG         75.4278   58.0391   39.6475 mg         1 CLA      0.895000
     66 HMD3       71.3071   53.9116   39.0856 dc         1 CLA      0.064300
     67 HMD2       70.5810   54.6305   37.6735 dc         1 CLA      0.064300
     68 HMD1       71.7670   53.2371   37.4367 dc         1 CLA      0.064300
     69 HMC3       72.4021   57.7847   45.4196 dc         1 CLA      0.052100
     70 HMC2       73.9318   58.4358   45.4331 dc         1 CLA      0.052100
     71 HMC1       72.6052   59.4175   44.7237 dc         1 CLA      0.052100
     72 HMB3       80.0734   61.8463   40.2899 dc         1 CLA      0.063600
     73 HMB2       79.5900   62.4246   41.8682 dc         1 CLA      0.063600
     74 HMB1       80.4044   60.8241   41.5798 dc         1 CLA      0.063600
     75 HMA3       80.3715   56.2936   38.0664 dc         1 CLA      0.058300
     76 HMA2       81.2211   57.3986   36.9048 dc         1 CLA      0.058300
     77 HMA1       80.8029   57.8805   38.4811 dc         1 CLA      0.058300
     78 HED3       77.2337   51.5288   36.4225 dc         1 CLA      0.079300
     79 HED2       78.4018   52.7257   37.2148 dc         1 CLA      0.079300
     80 HED1       77.1967   51.9115   38.2118 dc         1 CLA      0.079300
     81 HBC3       72.1602   55.0865   44.1287 dc         1 CLA      0.016300
     82 HBC2       70.4568   54.5908   44.0344 dc         1 CLA      0.016300
     83 HBC1       71.5266   54.6047   42.5311 dc         1 CLA      0.016300
     84 HBB2       78.2342   62.5718   45.4287 da         1 CLA      0.183000
     85 HBB1       79.4632   62.0985   44.0566 da         1 CLA      0.183000
     86 HBA2       79.0734   58.1592   33.2401 dc         1 CLA      0.029400
     87 HBA1       80.0340   58.2528   34.7720 dc         1 CLA      0.029400
     88 HAC2       70.7328   56.9027   44.1128 dc         1 CLA      0.029300
     89 HAC1       70.1261   56.7815   42.5590 dc         1 CLA      0.029300
     90 HAA2       77.3055   56.9278   34.5387 dc         1 CLA      0.028700
     91 HAA1       77.5516   58.5145   35.1261 dc         1 CLA      0.028700
     92 H203       81.8312   62.1351   46.5215 dc         1 CLA      0.065600
     93 H202       83.4173   61.4045   46.9088 dc         1 CLA      0.065600
     94 H201       83.2676   62.5933   45.5866 dc         1 CLA      0.065600
     95 H193       81.7556   59.1595   46.7215 dc         1 CLA      0.065600
     96 H192       80.4773   60.1324   46.0678 dc         1 CLA      0.065600
     97 H191       81.1150   58.8413   45.0299 dc         1 CLA      0.065600
     98 H172       83.9399   59.2999   45.3744 dc         1 CLA      0.027600
     99 H171       84.2868   60.7184   44.3564 dc         1 CLA      0.027600
    100 H162       83.0789   59.4625   42.4847 dc         1 CLA      0.002900
    101 H161       82.7846   58.3054   43.6575 dc         1 CLA      0.002900
    102 H152       85.1709   57.8042   43.9469 dc         1 CLA      0.029100
    103 H151       85.5283   59.0141   42.7102 dc         1 CLA      0.029100
    104 H143       84.5236   55.5398   43.3221 dc         1 CLA      0.063600
    105 H142       82.9830   56.2558   42.9438 dc         1 CLA      0.063600
    106 H141       83.8193   55.2134   41.7399 dc         1 CLA      0.063600
    107 H122       84.6606   58.7139   40.4894 dc         1 CLA      0.032500
    108 H121       83.0710   57.7907   40.6417 dc         1 CLA      0.032500
    109 H112       83.6807   57.1142   38.5973 dc         1 CLA      0.006600
    110 H111       83.8446   55.8195   39.6662 dc         1 CLA      0.006600
    111 H102       86.2529   55.6758   39.5674 dc         1 CLA      0.024100
    112 H101       86.3668   57.3782   39.2675 dc         1 CLA      0.024100
    113 HHD        71.5547   55.7261   40.5726 da         1 CLA      0.174300
    114 HHC        75.1824   59.8745   43.7246 da         1 CLA      0.136800
    115 HHB        79.6524   59.8212   39.1720 da         1 CLA      0.138300
    116 HBD        75.6757   55.6907   34.7213 dc         1 CLA      0.107700
    117 HAB        76.4382   61.5344   44.0636 da         1 CLA      0.155200
    118 H93        87.6519   55.0218   37.7036 dc         1 CLA      0.069500
    119 H92        87.4093   55.6032   36.0541 dc         1 CLA      0.069500
    120 H91        87.8414   56.7986   37.3954 dc         1 CLA      0.069500
    121 H8         85.2268   56.7281   37.0805 dc         1 CLA      0.029300
    122 H72        84.0992   54.8002   37.7030 dc         1 CLA      0.044400
    123 H71        85.4512   53.7173   37.8958 dc         1 CLA      0.044400
    124 H62        86.0745   53.7761   35.6687 dc         1 CLA      0.015600
    125 H61        84.7379   54.8951   35.3361 dc         1 CLA      0.015600
    126 H52        84.6646   51.9312   36.2693 dc         1 CLA      0.033200
    127 H51        84.1636   52.6560   34.6773 dc         1 CLA      0.033200
    128 H43        82.4358   51.6746   37.9194 dc         1 CLA      0.037000
    129 H42        80.9699   51.9334   37.2123 dc         1 CLA      0.037000
    130 H41        82.0262   50.8561   36.3344 dc         1 CLA      0.037000
    131 H3A        79.4176   58.8052   36.6344 dc         1 CLA      0.041100
    132 H2A        78.7155   56.0022   36.2459 dc         1 CLA      0.083100
    133 H2         81.8930   54.8388   36.8978 da         1 CLA      0.180900
    134 H18        81.7799   61.0209   44.3309 dc         1 CLA     -0.003900
    135 H13        85.7197   56.8677   41.8447 dc         1 CLA      0.019700
    136 H12        80.3042   53.9012   34.7792 dc         1 CLA      0.120400
    137 H11        81.7765   54.2373   33.9338 dc         1 CLA      0.120400
    138 C1         67.9360   60.3323   50.1648 Z1         2 LUT      0.509236
    139 C2         67.6722   61.2059   51.4129 Z2         2 LUT     -0.434695
    140 C3         66.1823   61.5029   51.5147 Z3         2 LUT      0.437453
    141 O3         65.8426   62.3083   52.6785 S1         2 LUT     -0.547129
    142 C4         65.7997   62.3071   50.3467 Z4         2 LUT     -0.468603
    143 C5         66.3824   61.8610   49.0119 Z5         2 LUT      0.279246
    144 C6         67.2684   60.8354   48.8884 Z6         2 LUT     -0.305473
    145 C7         67.9420   60.4775   47.5832 Z7         2 LUT      0.069402
    146 C8         68.7512   61.2350   46.7555 Z8         2 LUT     -0.191631
    147 C9         69.3991   60.8486   45.4368 Z9         2 LUT      0.196698
    148 C10        70.4259   61.6137   45.0477 Y1         2 LUT     -0.208611
    149 C11        71.1880   61.5210   43.8912 Y2         2 LUT      0.030784
    150 C12        72.3451   62.1936   43.5502 Y3         2 LUT     -0.220316
    151 C13        73.0922   62.1483   42.3130 Y4         2 LUT      0.215937
    152 C14        74.1618   63.0413   42.2025 Y5         2 LUT     -0.185793
    153 C15        75.2019   63.1386   41.1865 Y6         2 LUT     -0.057835
    154 C16        67.5579   58.9049   50.5573 Y7         2 LUT     -0.405615
    155 C17        69.4276   60.1485   50.1183 Y7         2 LUT     -0.405615
    156 C18        66.0179   62.7165   47.7987 Y9         2 LUT     -0.369639
    157 C19        68.9855   59.5615   44.8212 W1         2 LUT     -0.333362
    158 C20        72.7168   61.4647   40.9701 W2         2 LUT     -0.323439
    159 C21        86.7769   64.9896   35.6669 Z1         2 LUT      0.406104
    160 C22        87.6974   64.2099   34.5788 Z2         2 LUT     -0.404965
    161 C23        87.8555   64.9515   33.2688 Z3         2 LUT      0.391255
    162 O23        88.2795   64.0063   32.3183 S1         2 LUT     -0.528210
    163 C24        86.6008   65.7313   32.8691 W6         2 LUT     -0.258361
    164 C25        85.4471   65.9686   33.5854 Z5         2 LUT      0.133546
    165 C26        85.3415   65.3512   35.0035 W8         2 LUT     -0.147008
    166 C27        84.3390   66.0302   35.8751 Z7         2 LUT      0.023843
    167 C28        83.1431   65.5376   36.3328 Z8         2 LUT     -0.216987
    168 C29        82.3442   66.1155   37.4383 Z9         2 LUT      0.206524
    169 C30        81.3661   65.2467   37.9084 Y1         2 LUT     -0.215556
    170 C31        80.5201   65.3317   39.0152 Y2         2 LUT      0.025142
    171 C32        79.4590   64.5731   39.3062 Y3         2 LUT     -0.212209
    172 C33        78.5124   64.6419   40.3913 Y4         2 LUT      0.240937
    173 C34        77.3637   63.8362   40.4857 Y5         2 LUT     -0.218862
    174 C35        76.2993   63.9615   41.3435 Y6         2 LUT     -0.023547
    175 C36        87.5684   66.1903   36.3695 Y7         2 LUT     -0.393485
    176 C37        86.5203   63.8530   36.6796 Y7         2 LUT     -0.393485
    177 C38        84.3279   66.7974   33.0537 Y9         2 LUT     -0.387526
    178 C39        82.6870   67.4563   38.0431 W1         2 LUT     -0.322618
    179 C40        79.0644   65.3297   41.5908 W2         2 LUT     -0.358472
    180 H403       78.3206   65.5253   42.3855 R7         2 LUT      0.097720
    181 H402       79.9226   64.8659   42.0425 R7         2 LUT      0.097720
    182 H401       79.4056   66.3503   41.3658 R7         2 LUT      0.097720
    183 H393       82.5985   68.2743   37.2656 R4         2 LUT      0.082505
    184 H392       82.1088   67.8517   38.8600 R4         2 LUT      0.082505
    185 H391       83.6970   67.4386   38.3575 R4         2 LUT      0.082505
    186 H383       84.2057   67.7774   33.6354 R1         2 LUT      0.104030
    187 H382       84.4721   66.9953   32.0483 R1         2 LUT      0.104030
    188 H381       83.3619   66.2988   33.0019 R1         2 LUT      0.104030
    189 H373       85.9109   64.1864   37.5639 T4         2 LUT      0.089537
    190 H372       85.9850   62.9229   36.2445 T4         2 LUT      0.089537
    191 H371       87.3663   63.4790   37.1013 T4         2 LUT      0.089537
    192 H363       88.6211   65.8336   36.6802 T4         2 LUT      0.089537
    193 H362       87.6337   67.0051   35.6129 T4         2 LUT      0.089537
    194 H361       87.1633   66.5844   37.3543 T4         2 LUT      0.089537
    195 H222       88.7351   63.9004   34.9312 U2         2 LUT      0.127376
    196 H221       87.3112   63.2281   34.2227 U2         2 LUT      0.127376
    197 H203       72.8804   62.0139   40.0887 R7         2 LUT      0.087068
    198 H202       73.3850   60.6118   40.7470 R7         2 LUT      0.087068
    199 H201       71.6492   61.1760   40.9703 R7         2 LUT      0.087068
    200 H193       67.8920   59.6483   44.5868 R4         2 LUT      0.089716
    201 H192       69.5455   59.3895   43.9483 R4         2 LUT      0.089716
    202 H191       69.1165   58.7687   45.5436 R4         2 LUT      0.089716
    203 H183       65.2267   63.4782   48.0380 R1         2 LUT      0.094572
    204 H182       66.9219   63.1844   47.4565 R1         2 LUT      0.094572
    205 H181       65.6838   62.1334   46.9942 R1         2 LUT      0.094572
    206 H173       69.7829   59.4462   49.3440 T4         2 LUT      0.093752
    207 H172       69.9409   61.0701   50.0065 T4         2 LUT      0.093752
    208 H171       69.7990   59.7299   51.0376 T4         2 LUT      0.093752
    209 H163       68.0064   58.6196   51.5113 T4         2 LUT      0.093752
    210 H162       66.4490   58.8110   50.6370 T4         2 LUT      0.093752
    211 H161       67.7949   58.0955   49.8245 T4         2 LUT      0.093752
    212 HO3        65.6787   61.8469   53.5271 Q1         2 LUT      0.300121
    213 H8         68.9914   62.2603   47.1980 U7         2 LUT      0.080784
    214 H7         67.8933   59.4669   47.1997 U6         2 LUT      0.042190
    215 H42        64.7166   62.3814   50.3191 U5         2 LUT      0.145166
    216 H41        66.2051   63.3251   50.5246 U5         2 LUT      0.145166
    217 H35        76.3345   64.5349   42.2878 T3         2 LUT      0.077919
    218 H34        77.2654   63.1239   39.6445 T2         2 LUT      0.073626
    219 H32        79.1009   63.7778   38.6769 T1         2 LUT      0.092510
    220 H31        80.8409   66.1659   39.7163 U9         2 LUT      0.070048
    221 H30        81.2670   64.2869   37.3881 U8         2 LUT      0.085442
    222 H3         65.6433   60.5560   51.5449 U3         2 LUT     -0.031596
    223 H28        82.9327   64.4828   36.1130 U7         2 LUT      0.084728
    224 H27        84.6189   66.9968   36.3125 U6         2 LUT      0.087291
    225 H26        84.9310   64.4111   34.6577 Q6         2 LUT      0.075325
    226 H24        86.5247   66.1645   31.8841 Q5         2 LUT      0.094482
    227 H23        88.5843   65.7556   33.2215 U3         2 LUT     -0.024869
    228 H22        68.1347   60.7583   52.2823 U2         2 LUT      0.127376
    229 H21        68.1421   62.1615   51.3447 U2         2 LUT      0.127376
    230 H15        75.2236   62.3515   40.4766 T3         2 LUT      0.093200
    231 H14        74.2915   63.6492   43.0485 T2         2 LUT      0.068865
    232 H12        72.5640   62.9315   44.3409 T1         2 LUT      0.095507
    233 H11        70.7535   60.8338   43.2018 U9         2 LUT      0.068930
    234 H10        70.5675   62.4416   45.6933 U8         2 LUT      0.083911
    235 H1         88.4800   64.3568   31.4075 Q1         2 LUT      0.297311
@<TRIPOS>BOND
    1     6     1 1
    2     7     2 1
    3     8     3 1
    4     9     4 1
    5    11     4 1
    6    12     6 1
    7    13     9 1
    8    16     9 1
    9    25     5 1
   10    25    16 1
   11    26    10 1
   12    26    17 1
   13    27    18 1
   14    28    14 1
   15    28    19 1
   16    29    12 1
   17    30    13 1
   18    31    24 1
   19    32     1 1
   20    32    25 1
   21    33    21 1
   22    33    26 1
   23    34    22 1
   24    34    27 1
   25    35    23 1
   26    35    28 1
   27    36    12 1
   28    36    24 1
   29    37    13 1
   30    37    15 1
   31    38    31 1
   32    39    20 1
   33    39    32 1
   34    40     2 1
   35    40    33 1
   36    41     3 1
   37    41    34 1
   38    42     4 1
   39    42    35 1
   40    43    38 1
   41    44     5 1
   42    44    17 1
   43    44    39 1
   44    45    10 1
   45    45    18 1
   46    45    40 1
   47    46    19 1
   48    46    41 1
   49    47    14 1
   50    47    16 1
   51    47    42 1
   52    48    38 1
   53    49    48 1
   54    50    49 1
   55    51    50 1
   56    52    51 1
   57    53    51 1
   58    54    53 1
   59    55    54 1
   60    56    55 1
   61    57    56 1
   62    58    56 1
   63    59    58 1
   64    60    59 1
   65    61    60 1
   66    62    61 1
   67    63    61 1
   68    64    27 1
   69    64    46 1
   70    65     5 1
   71    65    10 1
   72    65    64 1
   73    65    14 1
   74    66    23 1
   75    67    23 1
   76    68    23 1
   77    69    22 1
   78    70    22 1
   79    71    22 1
   80    72    21 1
   81    73    21 1
   82    74    21 1
   83    75    20 1
   84    76    20 1
   85    77    20 1
   86    78    15 1
   87    79    15 1
   88    80    15 1
   89    81     8 1
   90    82     8 1
   91    83     8 1
   92    84     7 1
   93    85     7 1
   94    86     6 1
   95    87     6 1
   96    88     3 1
   97    89     3 1
   98    90     1 1
   99    91     1 1
  100    92    63 1
  101    93    63 1
  102    94    63 1
  103    95    62 1
  104    96    62 1
  105    97    62 1
  106    98    60 1
  107    99    60 1
  108   100    59 1
  109   101    59 1
  110   102    58 1
  111   103    58 1
  112   104    57 1
  113   105    57 1
  114   106    57 1
  115   107    55 1
  116   108    55 1
  117   109    54 1
  118   110    54 1
  119   111    53 1
  120   112    53 1
  121   113    19 1
  122   114    18 1
  123   115    17 1
  124   116     9 1
  125   117     2 1
  126   118    52 1
  127   119    52 1
  128   120    52 1
  129   121    51 1
  130   122    50 1
  131   123    50 1
  132   124    49 1
  133   125    49 1
  134   126    48 1
  135   127    48 1
  136   128    43 1
  137   129    43 1
  138   130    43 1
  139   131    39 1
  140   132    32 1
  141   133    31 1
  142   134    61 1
  143   135    56 1
  144   136    24 1
  145   137    24 1
  146   139   138 1
  147   140   139 1
  148   141   140 1
  149   142   140 1
  150   143   142 1
  151   144   138 1
  152   144   143 1
  153   145   144 1
  154   146   145 1
  155   147   146 1
  156   148   147 1
  157   149   148 1
  158   150   149 1
  159   151   150 1
  160   152   151 1
  161   153   152 1
  162   154   138 1
  163   155   138 1
  164   156   143 1
  165   157   147 1
  166   158   151 1
  167   160   159 1
  168   161   160 1
  169   162   161 1
  170   163   161 1
  171   164   163 1
  172   165   159 1
  173   165   164 1
  174   166   165 1
  175   167   166 1
  176   168   167 1
  177   169   168 1
  178   170   169 1
  179   171   170 1
  180   172   171 1
  181   173   172 1
  182   174   153 1
  183   174   173 1
  184   175   159 1
  185   176   159 1
  186   177   164 1
  187   178   168 1
  188   179   172 1
  189   180   179 1
  190   181   179 1
  191   182   179 1
  192   183   178 1
  193   184   178 1
  194   185   178 1
  195   186   177 1
  196   187   177 1
  197   188   177 1
  198   189   176 1
  199   190   176 1
  200   191   176 1
  201   192   175 1
  202   193   175 1
  203   194   175 1
  204   195   160 1
  205   196   160 1
  206   197   158 1
  207   198   158 1
  208   199   158 1
  209   200   157 1
  210   201   157 1
  211   202   157 1
  212   203   156 1
  213   204   156 1
  214   205   156 1
  215   206   155 1
  216   207   155 1
  217   208   155 1
  218   209   154 1
  219   210   154 1
  220   211   154 1
  221   212   141 1
  222   213   146 1
  223   214   145 1
  224   215   142 1
  225   216   142 1
  226   217   174 1
  227   218   173 1
  228   219   171 1
  229   220   170 1
  230   221   169 1
  231   222   140 1
  232   223   167 1
  233   224   166 1
  234   225   165 1
  235   226   163 1
  236   227   161 1
  237   228   139 1
  238   229   139 1
  239   230   153 1
  240   231   152 1
  241   232   150 1
  242   233   149 1
  243   234   148 1
  244   235   162 1
  245   65    153 1
  246   65    174 1
@<TRIPOS>SUBSTRUCTURE
      1 CLA               1 ****               0 ****  **** 
      2 LUT             138 ****               0 ****  **** 
