@<TRIPOS>MOLECULE
Cpptraj generated mol2 file.
  235   246     2     0     0
SMALL
USER_CHARGES


@<TRIPOS>ATOM
      1 CAA        79.4344   57.6773   34.6061 a2         1 CLA     -0.055900
      2 CAB        79.4658   61.5787   43.6421 c8         1 CLA     -0.148500
      3 CAC        72.5809   57.4455   43.1285 a2         1 CLA     -0.012600
      4 CAD        75.0934   55.3860   35.7056 ck         1 CLA      0.398800
      5 NA         78.2975   58.1588   37.9758 ns         1 CLA     -0.225500
      6 CBA        80.6904   57.5494   33.6817 a2         1 CLA     -0.135000
      7 CBB        80.6598   61.8196   44.2429 c0         1 CLA     -0.395200
      8 CBC        72.5251   55.9294   42.9302 a3         1 CLA     -0.037700
      9 CBD        76.5597   55.8117   35.4626 a1         1 CLA     -0.053900
     10 NB         78.2679   59.7537   40.6085 nm         1 CLA     -0.295700
     11 OBD        74.4789   54.6080   35.0111 o2         1 CLA     -0.494600
     12 CGA        81.0546   56.1326   33.3576 c4         1 CLA      0.827000
     13 CGD        77.4042   54.4768   35.4378 c4         1 CLA      0.655300
     14 ND         75.4509   57.4048   38.5205 nm         1 CLA     -0.291600
     15 CED        77.6868   52.3876   36.6140 a3         1 CLA      0.005400
     16 CHA        76.8930   56.7838   36.6022 cs         1 CLA     -0.123800
     17 CHB        80.0262   59.7812   38.8346 aa         1 CLA     -0.291900
     18 CHC        77.0235   59.8778   42.7574 aa         1 CLA     -0.090400
     19 CHD        73.6544   57.4597   40.1261 aa         1 CLA     -0.052000
     20 CMA        81.6603   57.2896   37.4734 a3         1 CLA     -0.230700
     21 CMB        81.4850   61.5153   41.0254 a3         1 CLA     -0.180800
     22 CMC        74.8025   59.1778   44.8327 a3         1 CLA     -0.134000
     23 CMD        72.2114   55.6993   37.6208 a3         1 CLA     -0.141100
     24 C1         81.7660   54.0216   34.3165 a2         1 CLA      0.023000
     25 C1A        78.1577   57.3592   36.8726 ac         1 CLA     -0.015100
     26 C1B        79.4755   60.2170   40.0726 cr         1 CLA      0.054700
     27 C1C        75.8169   59.2188   42.4823 cn         1 CLA     -0.005600
     28 C1D        74.1374   57.0568   38.8891 ap         1 CLA     -0.047300
     29 O1A        80.7654   55.4605   32.3843 o2         1 CLA     -0.610800
     30 O1D        78.1974   54.1542   34.5235 o2         1 CLA     -0.558200
     31 C2         82.6690   53.5579   35.4035 c8         1 CLA     -0.325100
     32 C2A        79.5286   57.1867   36.0913 a1         1 CLA      0.098600
     33 C2B        80.1137   60.9549   41.1507 cb         1 CLA      0.088500
     34 C2C        74.6873   58.9202   43.3530 cb         1 CLA      0.053700
     35 C2D        73.5804   56.3111   37.7860 cb         1 CLA      0.058900
     36 O2A        81.7174   55.5621   34.4185 o1         1 CLA     -0.437200
     37 O2D        77.1639   53.7926   36.5753 o1         1 CLA     -0.357600
     38 C3         83.9759   53.3283   35.2647 c5         1 CLA      0.031200
     39 C3A        80.4355   58.0597   36.9532 a1         1 CLA      0.166800
     40 C3B        79.3093   60.8714   42.3124 cb         1 CLA      0.035000
     41 C3C        73.7818   58.1250   42.5582 cb         1 CLA     -0.089900
     42 C3D        74.6907   56.0463   36.9463 cb         1 CLA     -0.035900
     43 C4         84.5033   52.0047   34.8087 a3         1 CLA     -0.053300
     44 C4A        79.5190   58.7595   37.9715 ac         1 CLA      0.001800
     45 C4B        78.1028   60.1751   41.9183 cn         1 CLA     -0.020900
     46 C4C        74.2723   58.0706   41.2729 cr         1 CLA     -0.044400
     47 C4D        75.7440   56.7973   37.4422 c6         1 CLA     -0.046000
     48 C5         85.0391   54.3271   35.7256 a2         1 CLA     -0.070400
     49 C6         84.9808   54.5939   37.2363 a2         1 CLA      0.043900
     50 C7         86.2824   55.3502   37.6357 a2         1 CLA     -0.150000
     51 C8         86.3157   55.9452   39.0271 a1         1 CLA      0.064200
     52 C9         85.4915   57.2733   39.2347 a3         1 CLA     -0.259300
     53 C10        87.7955   56.2633   39.3866 a2         1 CLA     -0.071900
     54 C11        88.1836   56.5533   40.8181 a2         1 CLA      0.014500
     55 C12        87.7949   55.4272   41.7412 a2         1 CLA     -0.112100
     56 C13        88.2648   55.5684   43.1925 a1         1 CLA      0.089200
     57 C14        87.8991   54.3229   43.9908 a3         1 CLA     -0.239100
     58 C15        87.7066   56.8887   43.9159 a2         1 CLA     -0.102200
     59 C16        86.1636   56.8908   44.1170 a2         1 CLA      0.023900
     60 C17        85.6866   58.2709   44.6549 a2         1 CLA     -0.105700
     61 C18        84.2041   58.3458   45.1235 a1         1 CLA      0.206800
     62 C19        83.8624   57.5011   46.3252 a3         1 CLA     -0.280100
     63 C20        83.9362   59.8738   45.4296 a3         1 CLA     -0.280100
     64 NC         75.5270   58.6456   41.2973 nx         1 CLA     -0.309200
     65 MG         76.8333   58.6514   39.5414 mg         1 CLA      0.895000
     66 HMD3       72.3946   54.8284   36.9764 dc         1 CLA      0.064300
     67 HMD2       71.7963   55.3273   38.5505 dc         1 CLA      0.064300
     68 HMD1       71.6452   56.5365   37.1426 dc         1 CLA      0.064300
     69 HMC3       73.8501   59.4411   45.2292 dc         1 CLA      0.052100
     70 HMC2       75.0381   58.2416   45.2816 dc         1 CLA      0.052100
     71 HMC1       75.6050   59.7584   45.1203 dc         1 CLA      0.052100
     72 HMB3       81.7267   61.7359   40.0023 dc         1 CLA      0.063600
     73 HMB2       81.4529   62.4821   41.5528 dc         1 CLA      0.063600
     74 HMB1       82.1638   61.0283   41.5749 dc         1 CLA      0.063600
     75 HMA3       82.0842   57.8300   38.3145 dc         1 CLA      0.058300
     76 HMA2       81.2990   56.3364   37.8101 dc         1 CLA      0.058300
     77 HMA1       82.4492   57.1623   36.7203 dc         1 CLA      0.058300
     78 HED3       77.4559   52.0175   37.6003 dc         1 CLA      0.079300
     79 HED2       77.0917   51.8920   35.8302 dc         1 CLA      0.079300
     80 HED1       78.6777   52.3653   36.3474 dc         1 CLA      0.079300
     81 HBC3       72.5136   55.7248   41.8823 dc         1 CLA      0.016300
     82 HBC2       73.4029   55.4478   43.3811 dc         1 CLA      0.016300
     83 HBC1       71.6745   55.4698   43.4409 dc         1 CLA      0.016300
     84 HBB2       80.7551   62.2780   45.2265 da         1 CLA      0.183000
     85 HBB1       81.6157   61.4153   43.9207 da         1 CLA      0.183000
     86 HBA2       80.5474   58.0552   32.6919 dc         1 CLA      0.029400
     87 HBA1       81.4984   58.0026   34.1748 dc         1 CLA      0.029400
     88 HAC2       72.5505   57.6083   44.1964 dc         1 CLA      0.029300
     89 HAC1       71.6468   57.8442   42.7154 dc         1 CLA      0.029300
     90 HAA2       78.6707   57.0868   34.1075 dc         1 CLA      0.028700
     91 HAA1       79.1808   58.7794   34.6095 dc         1 CLA      0.028700
     92 H203       84.4687   60.2278   46.3926 dc         1 CLA      0.065600
     93 H202       84.3748   60.4974   44.7154 dc         1 CLA      0.065600
     94 H201       82.8378   60.0151   45.4099 dc         1 CLA      0.065600
     95 H193       84.3772   57.8521   47.1736 dc         1 CLA      0.065600
     96 H192       82.7767   57.5147   46.5328 dc         1 CLA      0.065600
     97 H191       84.1136   56.4965   46.2430 dc         1 CLA      0.065600
     98 H172       86.3856   58.5385   45.4959 dc         1 CLA      0.027600
     99 H171       85.7842   59.0447   43.8873 dc         1 CLA      0.027600
    100 H162       85.7091   56.6308   43.1495 dc         1 CLA      0.002900
    101 H161       85.8484   56.1176   44.8273 dc         1 CLA      0.002900
    102 H152       88.2559   56.9902   44.8548 dc         1 CLA      0.029100
    103 H151       88.0617   57.7707   43.3858 dc         1 CLA      0.029100
    104 H143       86.8112   54.2224   43.9073 dc         1 CLA      0.063600
    105 H142       88.4751   53.4047   43.6861 dc         1 CLA      0.063600
    106 H141       88.0941   54.4558   45.0991 dc         1 CLA      0.063600
    107 H122       86.7038   55.4298   41.6350 dc         1 CLA      0.032500
    108 H121       88.0706   54.4063   41.4324 dc         1 CLA      0.032500
    109 H112       89.2314   56.8371   40.9005 dc         1 CLA      0.006600
    110 H111       87.5526   57.3805   41.0769 dc         1 CLA      0.006600
    111 H102       88.4379   55.4205   39.0371 dc         1 CLA      0.024100
    112 H101       88.0761   57.0299   38.7207 dc         1 CLA      0.024100
    113 HHD        72.5923   57.2811   40.2583 da         1 CLA      0.174300
    114 HHC        77.1877   60.1938   43.7743 da         1 CLA      0.136800
    115 HHB        80.9862   60.2181   38.5759 da         1 CLA      0.138300
    116 HBD        76.4443   56.3293   34.5195 dc         1 CLA      0.107700
    117 HAB        78.5343   61.9727   44.1286 da         1 CLA      0.155200
    118 H93        85.6124   57.6168   40.2897 dc         1 CLA      0.069500
    119 H92        85.8230   57.9589   38.4422 dc         1 CLA      0.069500
    120 H91        84.4208   57.1011   39.1646 dc         1 CLA      0.069500
    121 H8         85.9800   55.1710   39.6346 dc         1 CLA      0.029300
    122 H72        87.1864   54.7497   37.5822 dc         1 CLA      0.044400
    123 H71        86.3479   56.2077   36.9124 dc         1 CLA      0.044400
    124 H62        84.0026   55.1676   37.3963 dc         1 CLA      0.015600
    125 H61        84.9868   53.6081   37.6170 dc         1 CLA      0.015600
    126 H52        86.0494   53.9717   35.4569 dc         1 CLA      0.033200
    127 H51        84.7576   55.2360   35.2019 dc         1 CLA      0.033200
    128 H43        83.6874   51.3842   34.4292 dc         1 CLA      0.037000
    129 H42        85.2782   52.0617   34.0449 dc         1 CLA      0.037000
    130 H41        84.9958   51.5089   35.6218 dc         1 CLA      0.037000
    131 H3A        80.9199   58.8406   36.4079 dc         1 CLA      0.041100
    132 H2A        79.8094   56.1326   36.1683 dc         1 CLA      0.083100
    133 H2         82.1935   53.3948   36.2875 da         1 CLA      0.180900
    134 H18        83.5839   58.1807   44.2174 dc         1 CLA     -0.003900
    135 H13        89.3373   55.7188   43.1099 dc         1 CLA      0.019700
    136 H12        80.7813   53.6406   34.5709 dc         1 CLA      0.120400
    137 H11        82.0214   53.5981   33.3026 dc         1 CLA      0.120400
    138 C1         69.8831   60.7779   50.6670 Z1         2 LUT      0.509236
    139 C2         68.4288   60.7229   51.2007 Z2         2 LUT     -0.434695
    140 C3         67.6513   62.0568   51.4233 Z3         2 LUT      0.437453
    141 O3         67.7918   62.4271   52.7756 S1         2 LUT     -0.547129
    142 C4         68.3062   63.2060   50.7024 Z4         2 LUT     -0.468603
    143 C5         69.0226   62.8398   49.4184 Z5         2 LUT      0.279246
    144 C6         69.8585   61.7336   49.3897 Z6         2 LUT     -0.305473
    145 C7         70.2444   61.0322   48.0968 Z7         2 LUT      0.069402
    146 C8         71.0732   61.7078   47.2701 Z8         2 LUT     -0.191631
    147 C9         71.4534   61.3870   45.8904 Z9         2 LUT      0.196698
    148 C10        72.4605   62.1264   45.3456 Y1         2 LUT     -0.208611
    149 C11        73.1658   62.0039   44.0268 Y2         2 LUT      0.030784
    150 C12        74.1858   62.8820   43.6604 Y3         2 LUT     -0.220316
    151 C13        74.9867   62.8582   42.5144 Y4         2 LUT      0.215937
    152 C14        76.1417   63.6109   42.5210 Y5         2 LUT     -0.185793
    153 C15        77.1645   63.6759   41.5428 Y6         2 LUT     -0.057835
    154 C16        70.2772   59.3886   50.5275 Y7         2 LUT     -0.405615
    155 C17        70.6934   61.3322   51.8845 Y7         2 LUT     -0.405615
    156 C18        68.4012   63.5764   48.2577 Y9         2 LUT     -0.369639
    157 C19        70.6715   60.3867   45.0878 W1         2 LUT     -0.333362
    158 C20        74.4858   62.1849   41.2985 W2         2 LUT     -0.323439
    159 C21        88.6506   64.2505   35.8800 Z1         2 LUT      0.406104
    160 C22        89.0917   63.1696   34.8085 Z2         2 LUT     -0.404965
    161 C23        89.4231   63.7619   33.4398 Z3         2 LUT      0.391255
    162 O23        89.8351   62.6248   32.6375 S1         2 LUT     -0.528210
    163 C24        88.2821   64.6226   33.0133 W6         2 LUT     -0.258361
    164 C25        87.3486   65.2073   33.7941 Z5         2 LUT      0.133546
    165 C26        87.2619   64.7701   35.3262 W8         2 LUT     -0.147008
    166 C27        86.4532   65.6953   36.2953 Z7         2 LUT      0.023843
    167 C28        85.2436   65.4065   36.7314 Z8         2 LUT     -0.216987
    168 C29        84.4978   65.8864   37.8716 Z9         2 LUT      0.206524
    169 C30        83.3618   65.2604   38.2504 Y1         2 LUT     -0.215556
    170 C31        82.6003   65.4245   39.4005 Y2         2 LUT      0.025142
    171 C32        81.4842   64.6892   39.7219 Y3         2 LUT     -0.212209
    172 C33        80.6588   64.9196   40.8853 Y4         2 LUT      0.240937
    173 C34        79.4218   64.3248   40.7499 Y5         2 LUT     -0.218862
    174 C35        78.3487   64.3321   41.6637 Y6         2 LUT     -0.023547
    175 C36        89.7029   65.3829   36.1415 Y7         2 LUT     -0.393485
    176 C37        88.3795   63.4911   37.2090 Y7         2 LUT     -0.393485
    177 C38        86.3395   66.1790   33.2007 Y9         2 LUT     -0.387526
    178 C39        85.2927   66.8764   38.7057 W1         2 LUT     -0.322618
    179 C40        81.0346   65.8968   41.9508 W2         2 LUT     -0.358472
    180 H403       82.1026   65.9770   42.1847 R7         2 LUT      0.097720
    181 H402       80.7737   66.9174   41.6970 R7         2 LUT      0.097720
    182 H401       80.4249   65.6597   42.8245 R7         2 LUT      0.097720
    183 H393       85.9081   66.2206   39.3794 R4         2 LUT      0.082505
    184 H392       85.8834   67.6145   38.1132 R4         2 LUT      0.082505
    185 H391       84.6654   67.3312   39.4612 R4         2 LUT      0.082505
    186 H383       85.4027   65.6337   32.8729 R1         2 LUT      0.104030
    187 H382       86.0749   66.9903   33.9764 R1         2 LUT      0.104030
    188 H381       86.8131   66.7810   32.3882 R1         2 LUT      0.104030
    189 H373       89.2147   62.9813   37.7517 T4         2 LUT      0.089537
    190 H372       87.9369   64.2261   37.9684 T4         2 LUT      0.089537
    191 H371       87.7133   62.6791   36.9436 T4         2 LUT      0.089537
    192 H363       89.2374   66.2366   36.6449 T4         2 LUT      0.089537
    193 H362       90.5114   65.0863   36.8181 T4         2 LUT      0.089537
    194 H361       90.0496   65.9121   35.2109 T4         2 LUT      0.089537
    195 H222       90.0232   62.6400   35.0443 U2         2 LUT      0.127376
    196 H221       88.3460   62.3855   34.6455 U2         2 LUT      0.127376
    197 H203       75.2505   62.2225   40.4832 R7         2 LUT      0.087068
    198 H202       74.2982   61.1090   41.3978 R7         2 LUT      0.087068
    199 H201       73.6366   62.6496   40.8729 R7         2 LUT      0.087068
    200 H193       71.1049   60.0235   44.1760 R4         2 LUT      0.089716
    201 H192       70.5487   59.5002   45.7502 R4         2 LUT      0.089716
    202 H191       69.7223   60.6895   44.7862 R4         2 LUT      0.089716
    203 H183       68.3737   63.0304   47.3093 R1         2 LUT      0.094572
    204 H182       67.3722   63.8403   48.4721 R1         2 LUT      0.094572
    205 H181       68.8268   64.5052   48.0724 R1         2 LUT      0.094572
    206 H173       70.3555   61.1627   52.9287 T4         2 LUT      0.093752
    207 H172       71.7768   60.9891   51.7723 T4         2 LUT      0.093752
    208 H171       70.7626   62.4311   51.8538 T4         2 LUT      0.093752
    209 H163       71.2780   59.2922   50.0973 T4         2 LUT      0.093752
    210 H162       70.3310   58.8634   51.4804 T4         2 LUT      0.093752
    211 H161       69.7000   58.7102   50.0528 T4         2 LUT      0.093752
    212 HO3        67.0716   62.0601   53.3593 Q1         2 LUT      0.300121
    213 H8         71.3485   62.6905   47.5694 U7         2 LUT      0.080784
    214 H7         69.8293   60.0349   47.9681 U6         2 LUT      0.042190
    215 H42        67.5037   63.9838   50.5998 U5         2 LUT      0.145166
    216 H41        69.0871   63.7713   51.2671 U5         2 LUT      0.145166
    217 H35        78.5175   64.7720   42.6260 T3         2 LUT      0.077919
    218 H34        79.2156   63.7382   39.8013 T2         2 LUT      0.073626
    219 H32        81.2209   63.9003   39.0153 T1         2 LUT      0.092510
    220 H31        82.9066   66.1562   40.0695 U9         2 LUT      0.070048
    221 H30        82.9943   64.4927   37.5529 U8         2 LUT      0.085442
    222 H3         66.6161   62.0835   51.0967 U3         2 LUT     -0.031596
    223 H28        84.7145   64.4952   36.2980 U7         2 LUT      0.084728
    224 H27        86.9827   66.5004   36.7166 U6         2 LUT      0.087291
    225 H26        86.5462   63.8993   35.4483 Q6         2 LUT      0.075325
    226 H24        88.4277   64.9741   31.9720 Q5         2 LUT      0.094482
    227 H23        90.2840   64.4610   33.4279 U3         2 LUT     -0.024869
    228 H22        67.7684   60.2401   50.4567 U2         2 LUT      0.127376
    229 H21        68.2651   60.1969   52.1623 U2         2 LUT      0.127376
    230 H15        76.9592   63.1689   40.6333 T3         2 LUT      0.093200
    231 H14        76.3664   64.1543   43.4657 T2         2 LUT      0.068865
    232 H12        74.4704   63.7787   44.3069 T1         2 LUT      0.095507
    233 H11        72.9743   61.1217   43.4127 U9         2 LUT      0.068930
    234 H10        72.9307   62.8874   45.9505 U8         2 LUT      0.083911
    235 H1         89.6776   62.7538   31.7022 Q1         2 LUT      0.297311
@<TRIPOS>BOND
    1     6     1 1
    2     7     2 1
    3     8     3 1
    4     9     4 1
    5    11     4 1
    6    12     6 1
    7    13     9 1
    8    16     9 1
    9    25     5 1
   10    25    16 1
   11    26    10 1
   12    26    17 1
   13    27    18 1
   14    28    14 1
   15    28    19 1
   16    29    12 1
   17    30    13 1
   18    31    24 1
   19    32     1 1
   20    32    25 1
   21    33    21 1
   22    33    26 1
   23    34    22 1
   24    34    27 1
   25    35    23 1
   26    35    28 1
   27    36    12 1
   28    36    24 1
   29    37    13 1
   30    37    15 1
   31    38    31 1
   32    39    20 1
   33    39    32 1
   34    40     2 1
   35    40    33 1
   36    41     3 1
   37    41    34 1
   38    42     4 1
   39    42    35 1
   40    43    38 1
   41    44     5 1
   42    44    17 1
   43    44    39 1
   44    45    10 1
   45    45    18 1
   46    45    40 1
   47    46    19 1
   48    46    41 1
   49    47    14 1
   50    47    16 1
   51    47    42 1
   52    48    38 1
   53    49    48 1
   54    50    49 1
   55    51    50 1
   56    52    51 1
   57    53    51 1
   58    54    53 1
   59    55    54 1
   60    56    55 1
   61    57    56 1
   62    58    56 1
   63    59    58 1
   64    60    59 1
   65    61    60 1
   66    62    61 1
   67    63    61 1
   68    64    27 1
   69    64    46 1
   70    65     5 1
   71    65    10 1
   72    65    64 1
   73    65    14 1
   74    66    23 1
   75    67    23 1
   76    68    23 1
   77    69    22 1
   78    70    22 1
   79    71    22 1
   80    72    21 1
   81    73    21 1
   82    74    21 1
   83    75    20 1
   84    76    20 1
   85    77    20 1
   86    78    15 1
   87    79    15 1
   88    80    15 1
   89    81     8 1
   90    82     8 1
   91    83     8 1
   92    84     7 1
   93    85     7 1
   94    86     6 1
   95    87     6 1
   96    88     3 1
   97    89     3 1
   98    90     1 1
   99    91     1 1
  100    92    63 1
  101    93    63 1
  102    94    63 1
  103    95    62 1
  104    96    62 1
  105    97    62 1
  106    98    60 1
  107    99    60 1
  108   100    59 1
  109   101    59 1
  110   102    58 1
  111   103    58 1
  112   104    57 1
  113   105    57 1
  114   106    57 1
  115   107    55 1
  116   108    55 1
  117   109    54 1
  118   110    54 1
  119   111    53 1
  120   112    53 1
  121   113    19 1
  122   114    18 1
  123   115    17 1
  124   116     9 1
  125   117     2 1
  126   118    52 1
  127   119    52 1
  128   120    52 1
  129   121    51 1
  130   122    50 1
  131   123    50 1
  132   124    49 1
  133   125    49 1
  134   126    48 1
  135   127    48 1
  136   128    43 1
  137   129    43 1
  138   130    43 1
  139   131    39 1
  140   132    32 1
  141   133    31 1
  142   134    61 1
  143   135    56 1
  144   136    24 1
  145   137    24 1
  146   139   138 1
  147   140   139 1
  148   141   140 1
  149   142   140 1
  150   143   142 1
  151   144   138 1
  152   144   143 1
  153   145   144 1
  154   146   145 1
  155   147   146 1
  156   148   147 1
  157   149   148 1
  158   150   149 1
  159   151   150 1
  160   152   151 1
  161   153   152 1
  162   154   138 1
  163   155   138 1
  164   156   143 1
  165   157   147 1
  166   158   151 1
  167   160   159 1
  168   161   160 1
  169   162   161 1
  170   163   161 1
  171   164   163 1
  172   165   159 1
  173   165   164 1
  174   166   165 1
  175   167   166 1
  176   168   167 1
  177   169   168 1
  178   170   169 1
  179   171   170 1
  180   172   171 1
  181   173   172 1
  182   174   153 1
  183   174   173 1
  184   175   159 1
  185   176   159 1
  186   177   164 1
  187   178   168 1
  188   179   172 1
  189   180   179 1
  190   181   179 1
  191   182   179 1
  192   183   178 1
  193   184   178 1
  194   185   178 1
  195   186   177 1
  196   187   177 1
  197   188   177 1
  198   189   176 1
  199   190   176 1
  200   191   176 1
  201   192   175 1
  202   193   175 1
  203   194   175 1
  204   195   160 1
  205   196   160 1
  206   197   158 1
  207   198   158 1
  208   199   158 1
  209   200   157 1
  210   201   157 1
  211   202   157 1
  212   203   156 1
  213   204   156 1
  214   205   156 1
  215   206   155 1
  216   207   155 1
  217   208   155 1
  218   209   154 1
  219   210   154 1
  220   211   154 1
  221   212   141 1
  222   213   146 1
  223   214   145 1
  224   215   142 1
  225   216   142 1
  226   217   174 1
  227   218   173 1
  228   219   171 1
  229   220   170 1
  230   221   169 1
  231   222   140 1
  232   223   167 1
  233   224   166 1
  234   225   165 1
  235   226   163 1
  236   227   161 1
  237   228   139 1
  238   229   139 1
  239   230   153 1
  240   231   152 1
  241   232   150 1
  242   233   149 1
  243   234   148 1
  244   235   162 1
  245   65    153 1
  246   65    174 1
@<TRIPOS>SUBSTRUCTURE
      1 CLA               1 ****               0 ****  **** 
      2 LUT             138 ****               0 ****  **** 
