@<TRIPOS>MOLECULE
Cpptraj generated mol2 file.
  235   246     2     0     0
SMALL
USER_CHARGES


@<TRIPOS>ATOM
      1 CAA        80.0653   59.2368   34.2196 a2         1 CLA     -0.055900
      2 CAB        78.9826   62.2813   43.4144 c8         1 CLA     -0.148500
      3 CAC        72.3501   57.9776   41.9734 a2         1 CLA     -0.012600
      4 CAD        75.8925   56.0825   34.9383 ck         1 CLA      0.398800
      5 NA         78.6427   59.2819   37.4663 ns         1 CLA     -0.225500
      6 CBA        81.2669   59.0500   33.3790 a2         1 CLA     -0.135000
      7 CBB        80.0265   62.4452   44.2994 c0         1 CLA     -0.395200
      8 CBC        72.4320   56.4666   42.2271 a3         1 CLA     -0.037700
      9 CBD        77.2995   56.7636   34.7089 a1         1 CLA     -0.053900
     10 NB         78.2470   60.4563   40.2375 nm         1 CLA     -0.295700
     11 OBD        75.3304   55.3461   34.1293 o2         1 CLA     -0.494600
     12 CGA        81.7881   57.5696   33.1695 c4         1 CLA      0.827000
     13 CGD        78.3378   55.7587   34.3538 c4         1 CLA      0.655300
     14 ND         75.9931   58.0793   37.8642 nm         1 CLA     -0.291600
     15 CED        79.4058   53.6843   35.0945 a3         1 CLA      0.005400
     16 CHA        77.5706   57.7083   35.9382 cs         1 CLA     -0.123800
     17 CHB        80.2675   60.5843   38.7999 aa         1 CLA     -0.291900
     18 CHC        76.6726   60.6044   42.0923 aa         1 CLA     -0.090400
     19 CHD        73.9297   57.8559   39.1897 aa         1 CLA     -0.052000
     20 CMA        82.0905   58.7300   37.2923 a3         1 CLA     -0.230700
     21 CMB        81.2813   62.4400   40.9692 a3         1 CLA     -0.180800
     22 CMC        74.3954   59.5943   43.9166 a3         1 CLA     -0.134000
     23 CMD        73.0574   55.7641   36.7588 a3         1 CLA     -0.141100
     24 C1         82.8374   55.7097   34.2365 a2         1 CLA      0.023000
     25 C1A        78.6917   58.4879   36.3156 ac         1 CLA     -0.015100
     26 C1B        79.5320   60.9351   39.9604 cr         1 CLA      0.054700
     27 C1C        75.6193   59.8288   41.6165 cn         1 CLA     -0.005600
     28 C1D        74.6451   57.6103   37.9625 ap         1 CLA     -0.047300
     29 O1A        81.7247   56.9421   32.1201 o2         1 CLA     -0.610800
     30 O1D        79.2942   56.0092   33.5650 o2         1 CLA     -0.558200
     31 C2         83.3350   55.2619   35.5822 c8         1 CLA     -0.325100
     32 C2A        80.0049   58.6123   35.6019 a1         1 CLA      0.098600
     33 C2B        79.9871   61.7112   41.0402 cb         1 CLA      0.088500
     34 C2C        74.5110   59.4338   42.4689 cb         1 CLA      0.053700
     35 C2D        74.2997   56.6117   36.9386 cb         1 CLA      0.058900
     36 O2A        82.3512   57.0614   34.3804 o1         1 CLA     -0.437200
     37 O2D        78.2528   54.6002   35.1779 o1         1 CLA     -0.357600
     38 C3         84.3505   54.3077   35.7650 c5         1 CLA      0.031200
     39 C3A        80.8510   59.4285   36.6340 a1         1 CLA      0.166800
     40 C3B        78.9937   61.6568   42.0312 cb         1 CLA      0.035000
     41 C3C        73.6869   58.6528   41.6512 cb         1 CLA     -0.089900
     42 C3D        75.4117   56.6726   36.1193 cb         1 CLA     -0.035900
     43 C4         84.1962   52.8232   36.0806 a3         1 CLA     -0.053300
     44 C4A        79.8491   59.7914   37.6919 ac         1 CLA      0.001800
     45 C4B        77.9029   60.9210   41.4943 cn         1 CLA     -0.020900
     46 C4C        74.3001   58.6402   40.3340 cr         1 CLA     -0.044400
     47 C4D        76.3475   57.6193   36.6677 c6         1 CLA     -0.046000
     48 C5         85.8550   54.6929   35.6422 a2         1 CLA     -0.070400
     49 C6         86.3978   56.0114   36.3428 a2         1 CLA      0.043900
     50 C7         86.7683   55.7157   37.8479 a2         1 CLA     -0.150000
     51 C8         87.2211   56.9030   38.6299 a1         1 CLA      0.064200
     52 C9         88.6017   57.5701   38.1232 a3         1 CLA     -0.259300
     53 C10        87.3313   56.3570   40.0957 a2         1 CLA     -0.071900
     54 C11        87.7517   57.3342   41.2131 a2         1 CLA      0.014500
     55 C12        87.5991   56.7560   42.6691 a2         1 CLA     -0.112100
     56 C13        87.8923   57.7371   43.8284 a1         1 CLA      0.089200
     57 C14        89.3429   58.2313   43.8830 a3         1 CLA     -0.239100
     58 C15        87.3822   57.1031   45.1816 a2         1 CLA     -0.102200
     59 C16        85.8439   57.1220   45.3454 a2         1 CLA      0.023900
     60 C17        85.3498   58.5496   45.8323 a2         1 CLA     -0.105700
     61 C18        83.7965   58.6606   45.7304 a1         1 CLA      0.206800
     62 C19        83.0081   57.7657   46.6711 a3         1 CLA     -0.280100
     63 C20        83.2419   60.1228   45.7303 a3         1 CLA     -0.280100
     64 NC         75.4811   59.3419   40.3889 nx         1 CLA     -0.309200
     65 MG         76.9575   59.4429   38.8817 mg         1 CLA      0.895000
     66 HMD3       73.2912   55.1371   35.9131 dc         1 CLA      0.064300
     67 HMD2       72.7484   55.2145   37.6851 dc         1 CLA      0.064300
     68 HMD1       72.2145   56.4528   36.6269 dc         1 CLA      0.064300
     69 HMC3       74.7001   60.6535   44.0609 dc         1 CLA      0.052100
     70 HMC2       73.4562   59.2404   44.2831 dc         1 CLA      0.052100
     71 HMC1       75.2065   58.9991   44.4159 dc         1 CLA      0.052100
     72 HMB3       81.3841   62.8029   39.9608 dc         1 CLA      0.063600
     73 HMB2       81.2174   63.3368   41.6026 dc         1 CLA      0.063600
     74 HMB1       82.0554   61.8393   41.2621 dc         1 CLA      0.063600
     75 HMA3       81.8710   57.8939   37.9048 dc         1 CLA      0.058300
     76 HMA2       82.6903   58.3567   36.4689 dc         1 CLA      0.058300
     77 HMA1       82.7643   59.3620   37.7827 dc         1 CLA      0.058300
     78 HED3       79.0079   52.6919   35.2052 dc         1 CLA      0.079300
     79 HED2       79.7814   53.8523   34.0606 dc         1 CLA      0.079300
     80 HED1       80.1309   53.8985   35.8392 dc         1 CLA      0.079300
     81 HBC3       73.0743   55.8989   41.5805 dc         1 CLA      0.016300
     82 HBC2       72.9111   56.3576   43.2145 dc         1 CLA      0.016300
     83 HBC1       71.4013   56.1182   42.2427 dc         1 CLA      0.016300
     84 HBB2       80.0290   63.0410   45.2501 da         1 CLA      0.183000
     85 HBB1       81.0783   62.1467   44.0342 da         1 CLA      0.183000
     86 HBA2       81.1505   59.3922   32.3990 dc         1 CLA      0.029400
     87 HBA1       82.0188   59.6749   33.8368 dc         1 CLA      0.029400
     88 HAC2       71.9361   58.4631   42.8676 dc         1 CLA      0.029300
     89 HAC1       71.7194   58.1606   41.1371 dc         1 CLA      0.029300
     90 HAA2       79.2275   58.8844   33.6466 dc         1 CLA      0.028700
     91 HAA1       80.0320   60.3128   34.4050 dc         1 CLA      0.028700
     92 H203       82.1617   60.2162   45.5078 dc         1 CLA      0.065600
     93 H202       83.4336   60.6346   46.6711 dc         1 CLA      0.065600
     94 H201       83.7500   60.6262   44.9283 dc         1 CLA      0.065600
     95 H193       81.9428   58.1021   46.6193 dc         1 CLA      0.065600
     96 H192       83.0794   56.7318   46.3952 dc         1 CLA      0.065600
     97 H191       83.4182   57.9469   47.6231 dc         1 CLA      0.065600
     98 H172       85.7606   58.8356   46.8134 dc         1 CLA      0.027600
     99 H171       85.6469   59.2486   45.1041 dc         1 CLA      0.027600
    100 H162       85.3220   56.6960   44.4840 dc         1 CLA      0.002900
    101 H161       85.6843   56.4712   46.2388 dc         1 CLA      0.002900
    102 H152       87.7490   56.0765   45.1417 dc         1 CLA      0.029100
    103 H151       87.8009   57.6297   45.9796 dc         1 CLA      0.029100
    104 H143       89.3416   58.9512   44.7276 dc         1 CLA      0.063600
    105 H142       90.1087   57.4478   44.0237 dc         1 CLA      0.063600
    106 H141       89.5971   58.8761   43.0447 dc         1 CLA      0.063600
    107 H122       86.5053   56.4350   42.6925 dc         1 CLA      0.032500
    108 H121       88.2321   55.7984   42.8214 dc         1 CLA      0.032500
    109 H112       88.8219   57.5983   41.0836 dc         1 CLA      0.006600
    110 H111       87.1504   58.2349   41.1040 dc         1 CLA      0.006600
    111 H102       86.3918   55.9619   40.4360 dc         1 CLA      0.024100
    112 H101       88.0319   55.5828   40.0840 dc         1 CLA      0.024100
    113 HHD        73.0230   57.3197   39.3323 da         1 CLA      0.174300
    114 HHC        76.5146   61.0954   43.0812 da         1 CLA      0.136800
    115 HHB        81.2738   60.9310   38.6503 da         1 CLA      0.138300
    116 HBD        77.0927   57.3137   33.8404 dc         1 CLA      0.107700
    117 HAB        78.0189   62.6324   43.7864 da         1 CLA      0.155200
    118 H93        89.4645   56.8634   38.2320 dc         1 CLA      0.069500
    119 H92        88.4823   57.6839   37.0107 dc         1 CLA      0.069500
    120 H91        88.8007   58.5594   38.6334 dc         1 CLA      0.069500
    121 H8         86.4861   57.6967   38.6194 dc         1 CLA      0.029300
    122 H72        85.8980   55.3465   38.3186 dc         1 CLA      0.044400
    123 H71        87.6406   55.0042   37.8338 dc         1 CLA      0.044400
    124 H62        87.3077   56.2267   35.7872 dc         1 CLA      0.015600
    125 H61        85.6400   56.8470   36.2417 dc         1 CLA      0.015600
    126 H52        86.3866   53.8225   36.0967 dc         1 CLA      0.033200
    127 H51        86.1809   54.7839   34.6461 dc         1 CLA      0.033200
    128 H43        84.6710   52.6309   37.0531 dc         1 CLA      0.037000
    129 H42        83.2053   52.3349   36.1902 dc         1 CLA      0.037000
    130 H41        84.7506   52.2375   35.4041 dc         1 CLA      0.037000
    131 H3A        81.3476   60.2453   36.1507 dc         1 CLA      0.041100
    132 H2A        80.2705   57.5593   35.5575 dc         1 CLA      0.083100
    133 H2         83.1296   55.9047   36.4316 da         1 CLA      0.180900
    134 H18        83.5230   58.2191   44.7507 dc         1 CLA     -0.003900
    135 H13        87.4559   58.7570   43.5881 dc         1 CLA      0.019700
    136 H12        82.0101   54.9847   33.9777 dc         1 CLA      0.120400
    137 H11        83.5824   55.5185   33.3818 dc         1 CLA      0.120400
    138 C1         69.3835   61.4579   49.7729 Z1         2 LUT      0.509236
    139 C2         67.9578   61.4480   50.3570 Z2         2 LUT     -0.434695
    140 C3         67.2084   62.7385   50.5751 Z3         2 LUT      0.437453
    141 O3         67.0582   62.9671   51.9972 S1         2 LUT     -0.547129
    142 C4         68.0157   63.8692   50.0785 Z4         2 LUT     -0.468603
    143 C5         68.6663   63.6346   48.8097 Z5         2 LUT      0.279246
    144 C6         69.3918   62.5194   48.6505 Z6         2 LUT     -0.305473
    145 C7         69.6872   61.9919   47.2975 Z7         2 LUT      0.069402
    146 C8         70.6032   62.5939   46.4644 Z8         2 LUT     -0.191631
    147 C9         71.1972   62.2473   45.1189 Z9         2 LUT      0.196698
    148 C10        72.1586   63.0407   44.5917 Y1         2 LUT     -0.208611
    149 C11        72.8775   62.9993   43.2900 Y2         2 LUT      0.030784
    150 C12        74.0279   63.6644   43.0266 Y3         2 LUT     -0.220316
    151 C13        74.8690   63.7372   41.7597 Y4         2 LUT      0.215937
    152 C14        76.1604   64.3577   41.8683 Y5         2 LUT     -0.185793
    153 C15        77.2423   64.4310   40.9507 Y6         2 LUT     -0.057835
    154 C16        69.6835   59.9112   49.4483 Y7         2 LUT     -0.405615
    155 C17        70.3165   61.8715   50.9626 Y7         2 LUT     -0.405615
    156 C18        67.9339   64.3816   47.7603 Y9         2 LUT     -0.369639
    157 C19        70.7138   60.9889   44.3770 W1         2 LUT     -0.333362
    158 C20        74.3416   63.0473   40.5500 W2         2 LUT     -0.323439
    159 C21        88.9320   65.9411   35.2063 Z1         2 LUT      0.406104
    160 C22        89.5733   65.2306   34.0128 Z2         2 LUT     -0.404965
    161 C23        89.8233   66.1654   32.8404 Z3         2 LUT      0.391255
    162 O23        90.5335   65.4958   31.8201 S1         2 LUT     -0.528210
    163 C24        88.5382   66.9659   32.5458 W6         2 LUT     -0.258361
    164 C25        87.4774   67.0598   33.3546 Z5         2 LUT      0.133546
    165 C26        87.4096   66.3656   34.7307 W8         2 LUT     -0.147008
    166 C27        86.6528   67.0820   35.8265 Z7         2 LUT      0.023843
    167 C28        85.3767   66.7465   36.1689 Z8         2 LUT     -0.216987
    168 C29        84.6446   67.0806   37.3945 Z9         2 LUT      0.206524
    169 C30        83.4569   66.4540   37.6999 Y1         2 LUT     -0.215556
    170 C31        82.6536   66.5410   38.9299 Y2         2 LUT      0.025142
    171 C32        81.4859   65.8993   39.1011 Y3         2 LUT     -0.212209
    172 C33        80.5957   65.9109   40.3208 Y4         2 LUT      0.240937
    173 C34        79.3713   65.2462   40.1926 Y5         2 LUT     -0.218862
    174 C35        78.4044   65.1327   41.1764 Y6         2 LUT     -0.023547
    175 C36        89.8435   67.0729   35.7629 Y7         2 LUT     -0.393485
    176 C37        88.8490   64.7878   36.2466 Y7         2 LUT     -0.393485
    177 C38        86.2950   67.9451   32.9924 Y9         2 LUT     -0.387526
    178 C39        85.3139   67.9861   38.3770 W1         2 LUT     -0.322618
    179 C40        81.1786   66.2585   41.6417 W2         2 LUT     -0.358472
    180 H403       81.1208   65.4733   42.4333 R7         2 LUT      0.097720
    181 H402       82.1994   66.6012   41.5832 R7         2 LUT      0.097720
    182 H401       80.7142   67.1010   42.0485 R7         2 LUT      0.097720
    183 H393       86.2686   67.5958   38.7288 R4         2 LUT      0.082505
    184 H392       85.5834   68.9112   37.8722 R4         2 LUT      0.082505
    185 H391       84.7717   68.2986   39.2436 R4         2 LUT      0.082505
    186 H383       86.1398   68.0047   31.8925 R1         2 LUT      0.104030
    187 H382       85.3451   67.6432   33.3464 R1         2 LUT      0.104030
    188 H381       86.4071   68.9480   33.3547 R1         2 LUT      0.104030
    189 H373       89.7365   64.1826   36.3560 T4         2 LUT      0.089537
    190 H372       88.6803   65.1781   37.1869 T4         2 LUT      0.089537
    191 H371       88.1445   64.0172   36.0382 T4         2 LUT      0.089537
    192 H363       90.0652   67.9739   35.0794 T4         2 LUT      0.089537
    193 H362       89.6351   67.4710   36.7318 T4         2 LUT      0.089537
    194 H361       90.8318   66.5878   35.8459 T4         2 LUT      0.089537
    195 H222       90.6271   64.7981   34.2216 U2         2 LUT      0.127376
    196 H221       89.0347   64.3510   33.6798 U2         2 LUT      0.127376
    197 H203       74.6011   63.5746   39.6590 R7         2 LUT      0.087068
    198 H202       74.7763   62.0885   40.4412 R7         2 LUT      0.087068
    199 H201       73.2858   62.9709   40.7055 R7         2 LUT      0.087068
    200 H193       69.9357   60.5262   44.9550 R4         2 LUT      0.089716
    201 H192       70.2543   61.3081   43.4127 R4         2 LUT      0.089716
    202 H191       71.4344   60.2183   44.2452 R4         2 LUT      0.089716
    203 H183       68.0560   63.8973   46.8129 R1         2 LUT      0.094572
    204 H182       66.8508   64.5419   48.0334 R1         2 LUT      0.094572
    205 H181       68.3615   65.3584   47.5741 R1         2 LUT      0.094572
    206 H173       70.2784   62.9214   51.2604 T4         2 LUT      0.093752
    207 H172       70.2138   61.1155   51.7825 T4         2 LUT      0.093752
    208 H171       71.3425   61.6629   50.6158 T4         2 LUT      0.093752
    209 H163       70.7185   59.8525   49.1586 T4         2 LUT      0.093752
    210 H162       69.7311   59.2323   50.3058 T4         2 LUT      0.093752
    211 H161       69.0795   59.5040   48.6496 T4         2 LUT      0.093752
    212 HO3        66.2269   62.5509   52.3548 Q1         2 LUT      0.300121
    213 H8         71.1337   63.4665   46.8873 U7         2 LUT      0.080784
    214 H7         69.3453   61.0476   46.9486 U6         2 LUT      0.042190
    215 H42        67.4119   64.7668   50.0772 U5         2 LUT      0.145166
    216 H41        68.7775   64.1797   50.8338 U5         2 LUT      0.145166
    217 H35        78.5694   65.6961   42.1165 T3         2 LUT      0.077919
    218 H34        79.0699   64.7488   39.2559 T2         2 LUT      0.073626
    219 H32        81.1863   65.2344   38.3420 T1         2 LUT      0.092510
    220 H31        83.0673   67.1118   39.7364 U9         2 LUT      0.070048
    221 H30        83.0499   65.7338   36.9866 U8         2 LUT      0.085442
    222 H3         66.1833   62.8259   50.0650 U3         2 LUT     -0.031596
    223 H28        84.6581   66.1469   35.5878 U7         2 LUT      0.084728
    224 H27        87.2188   67.7598   36.4675 U6         2 LUT      0.087291
    225 H26        86.8407   65.4432   34.5278 Q6         2 LUT      0.075325
    226 H24        88.4394   67.3886   31.5539 Q5         2 LUT      0.094482
    227 H23        90.5370   66.9844   33.0352 U3         2 LUT     -0.024869
    228 H22        67.3045   60.9612   49.5823 U2         2 LUT      0.127376
    229 H21        67.9115   60.8284   51.2803 U2         2 LUT      0.127376
    230 H15        77.0664   64.0602   40.0010 T3         2 LUT      0.093200
    231 H14        76.3599   64.7637   42.8212 T2         2 LUT      0.068865
    232 H12        74.4370   64.1607   43.8962 T1         2 LUT      0.095507
    233 H11        72.4452   62.3507   42.4999 U9         2 LUT      0.068930
    234 H10        72.3546   63.8613   45.1437 U8         2 LUT      0.083911
    235 H1         90.1088   65.5978   30.9332 Q1         2 LUT      0.297311
@<TRIPOS>BOND
    1     6     1 1
    2     7     2 1
    3     8     3 1
    4     9     4 1
    5    11     4 1
    6    12     6 1
    7    13     9 1
    8    16     9 1
    9    25     5 1
   10    25    16 1
   11    26    10 1
   12    26    17 1
   13    27    18 1
   14    28    14 1
   15    28    19 1
   16    29    12 1
   17    30    13 1
   18    31    24 1
   19    32     1 1
   20    32    25 1
   21    33    21 1
   22    33    26 1
   23    34    22 1
   24    34    27 1
   25    35    23 1
   26    35    28 1
   27    36    12 1
   28    36    24 1
   29    37    13 1
   30    37    15 1
   31    38    31 1
   32    39    20 1
   33    39    32 1
   34    40     2 1
   35    40    33 1
   36    41     3 1
   37    41    34 1
   38    42     4 1
   39    42    35 1
   40    43    38 1
   41    44     5 1
   42    44    17 1
   43    44    39 1
   44    45    10 1
   45    45    18 1
   46    45    40 1
   47    46    19 1
   48    46    41 1
   49    47    14 1
   50    47    16 1
   51    47    42 1
   52    48    38 1
   53    49    48 1
   54    50    49 1
   55    51    50 1
   56    52    51 1
   57    53    51 1
   58    54    53 1
   59    55    54 1
   60    56    55 1
   61    57    56 1
   62    58    56 1
   63    59    58 1
   64    60    59 1
   65    61    60 1
   66    62    61 1
   67    63    61 1
   68    64    27 1
   69    64    46 1
   70    65     5 1
   71    65    10 1
   72    65    64 1
   73    65    14 1
   74    66    23 1
   75    67    23 1
   76    68    23 1
   77    69    22 1
   78    70    22 1
   79    71    22 1
   80    72    21 1
   81    73    21 1
   82    74    21 1
   83    75    20 1
   84    76    20 1
   85    77    20 1
   86    78    15 1
   87    79    15 1
   88    80    15 1
   89    81     8 1
   90    82     8 1
   91    83     8 1
   92    84     7 1
   93    85     7 1
   94    86     6 1
   95    87     6 1
   96    88     3 1
   97    89     3 1
   98    90     1 1
   99    91     1 1
  100    92    63 1
  101    93    63 1
  102    94    63 1
  103    95    62 1
  104    96    62 1
  105    97    62 1
  106    98    60 1
  107    99    60 1
  108   100    59 1
  109   101    59 1
  110   102    58 1
  111   103    58 1
  112   104    57 1
  113   105    57 1
  114   106    57 1
  115   107    55 1
  116   108    55 1
  117   109    54 1
  118   110    54 1
  119   111    53 1
  120   112    53 1
  121   113    19 1
  122   114    18 1
  123   115    17 1
  124   116     9 1
  125   117     2 1
  126   118    52 1
  127   119    52 1
  128   120    52 1
  129   121    51 1
  130   122    50 1
  131   123    50 1
  132   124    49 1
  133   125    49 1
  134   126    48 1
  135   127    48 1
  136   128    43 1
  137   129    43 1
  138   130    43 1
  139   131    39 1
  140   132    32 1
  141   133    31 1
  142   134    61 1
  143   135    56 1
  144   136    24 1
  145   137    24 1
  146   139   138 1
  147   140   139 1
  148   141   140 1
  149   142   140 1
  150   143   142 1
  151   144   138 1
  152   144   143 1
  153   145   144 1
  154   146   145 1
  155   147   146 1
  156   148   147 1
  157   149   148 1
  158   150   149 1
  159   151   150 1
  160   152   151 1
  161   153   152 1
  162   154   138 1
  163   155   138 1
  164   156   143 1
  165   157   147 1
  166   158   151 1
  167   160   159 1
  168   161   160 1
  169   162   161 1
  170   163   161 1
  171   164   163 1
  172   165   159 1
  173   165   164 1
  174   166   165 1
  175   167   166 1
  176   168   167 1
  177   169   168 1
  178   170   169 1
  179   171   170 1
  180   172   171 1
  181   173   172 1
  182   174   153 1
  183   174   173 1
  184   175   159 1
  185   176   159 1
  186   177   164 1
  187   178   168 1
  188   179   172 1
  189   180   179 1
  190   181   179 1
  191   182   179 1
  192   183   178 1
  193   184   178 1
  194   185   178 1
  195   186   177 1
  196   187   177 1
  197   188   177 1
  198   189   176 1
  199   190   176 1
  200   191   176 1
  201   192   175 1
  202   193   175 1
  203   194   175 1
  204   195   160 1
  205   196   160 1
  206   197   158 1
  207   198   158 1
  208   199   158 1
  209   200   157 1
  210   201   157 1
  211   202   157 1
  212   203   156 1
  213   204   156 1
  214   205   156 1
  215   206   155 1
  216   207   155 1
  217   208   155 1
  218   209   154 1
  219   210   154 1
  220   211   154 1
  221   212   141 1
  222   213   146 1
  223   214   145 1
  224   215   142 1
  225   216   142 1
  226   217   174 1
  227   218   173 1
  228   219   171 1
  229   220   170 1
  230   221   169 1
  231   222   140 1
  232   223   167 1
  233   224   166 1
  234   225   165 1
  235   226   163 1
  236   227   161 1
  237   228   139 1
  238   229   139 1
  239   230   153 1
  240   231   152 1
  241   232   150 1
  242   233   149 1
  243   234   148 1
  244   235   162 1
  245   65    153 1
  246   65    174 1
@<TRIPOS>SUBSTRUCTURE
      1 CLA               1 ****               0 ****  **** 
      2 LUT             138 ****               0 ****  **** 
