@<TRIPOS>MOLECULE
Cpptraj generated mol2 file.
  235   246     2     0     0
SMALL
USER_CHARGES


@<TRIPOS>ATOM
      1 CAA        77.5798   57.9849   33.3160 a2         1 CLA     -0.055900
      2 CAB        77.1663   61.6057   42.4205 c8         1 CLA     -0.148500
      3 CAC        70.5693   56.8559   41.6604 a2         1 CLA     -0.012600
      4 CAD        73.6136   55.1693   34.2532 ck         1 CLA      0.398800
      5 NA         76.3655   58.3412   36.6795 ns         1 CLA     -0.225500
      6 CBA        78.8895   57.8854   32.4863 a2         1 CLA     -0.135000
      7 CBB        76.2496   62.2927   43.1375 c0         1 CLA     -0.395200
      8 CBC        70.8105   55.3607   41.3945 a3         1 CLA     -0.037700
      9 CBD        75.0175   55.8041   34.0122 a1         1 CLA     -0.053900
     10 NB         76.1099   59.7581   39.3575 nm         1 CLA     -0.295700
     11 OBD        73.1324   54.3509   33.4771 o2         1 CLA     -0.494600
     12 CGA        79.3520   56.4881   32.1139 c4         1 CLA      0.827000
     13 CGD        76.0354   54.7741   33.7681 c4         1 CLA      0.655300
     14 ND         73.5527   57.3528   37.0701 nm         1 CLA     -0.291600
     15 CED        76.9982   52.8242   34.7607 a3         1 CLA      0.005400
     16 CHA        75.1731   56.7824   35.2340 cs         1 CLA     -0.123800
     17 CHB        78.0302   59.8669   37.8405 aa         1 CLA     -0.291900
     18 CHC        74.6776   59.8345   41.3401 aa         1 CLA     -0.090400
     19 CHD        71.7426   56.9227   38.6609 aa         1 CLA     -0.052000
     20 CMA        79.7676   57.8549   36.5097 a3         1 CLA     -0.230700
     21 CMB        79.3249   61.5771   40.0570 a3         1 CLA     -0.180800
     22 CMC        72.4033   58.8252   43.3437 a3         1 CLA     -0.134000
     23 CMD        70.6225   55.0004   36.3239 a3         1 CLA     -0.141100
     24 C1         80.4150   54.6494   33.1242 a2         1 CLA      0.023000
     25 C1A        76.3104   57.5385   35.6001 ac         1 CLA     -0.015100
     26 C1B        77.3934   60.1997   39.0341 cr         1 CLA      0.054700
     27 C1C        73.5440   58.9755   40.9838 cn         1 CLA     -0.005600
     28 C1D        72.3402   56.7647   37.3674 ap         1 CLA     -0.047300
     29 O1A        79.0332   55.7856   31.1721 o2         1 CLA     -0.610800
     30 O1D        76.5172   54.4563   32.6948 o2         1 CLA     -0.558200
     31 C2         81.0838   54.2254   34.4592 c8         1 CLA     -0.325100
     32 C2A        77.6077   57.5915   34.8516 a1         1 CLA      0.098600
     33 C2B        77.9894   60.9247   40.0877 cb         1 CLA      0.088500
     34 C2C        72.4769   58.5323   41.8578 cb         1 CLA      0.053700
     35 C2D        71.9242   55.8513   36.3581 cb         1 CLA      0.058900
     36 O2A        80.0798   56.0892   33.1913 o1         1 CLA     -0.437200
     37 O2D        76.2701   54.0901   34.9331 o1         1 CLA     -0.357600
     38 C3         81.6869   53.0276   34.6525 c5         1 CLA      0.031200
     39 C3A        78.5445   58.5120   35.7109 a1         1 CLA      0.166800
     40 C3B        77.0339   60.9559   41.1009 cb         1 CLA      0.035000
     41 C3C        71.6824   57.6674   41.0896 cb         1 CLA     -0.089900
     42 C3D        73.0189   55.7872   35.4378 cb         1 CLA     -0.035900
     43 C4         80.9319   51.8474   35.2355 a3         1 CLA     -0.053300
     44 C4A        77.5588   58.9781   36.8236 ac         1 CLA      0.001800
     45 C4B        75.8410   60.1726   40.6107 cn         1 CLA     -0.020900
     46 C4C        72.2564   57.6420   39.7683 cr         1 CLA     -0.044400
     47 C4D        73.9849   56.7051   35.9690 c6         1 CLA     -0.046000
     48 C5         83.1933   52.8454   34.3443 a2         1 CLA     -0.070400
     49 C6         84.0185   54.1448   34.6454 a2         1 CLA      0.043900
     50 C7         84.0962   54.4423   36.1817 a2         1 CLA     -0.150000
     51 C8         84.4991   55.9506   36.4452 a1         1 CLA      0.064200
     52 C9         85.9437   56.3100   35.9187 a3         1 CLA     -0.259300
     53 C10        84.4554   56.3363   38.0000 a2         1 CLA     -0.071900
     54 C11        83.0325   56.5349   38.5390 a2         1 CLA      0.014500
     55 C12        83.0200   57.2158   39.9203 a2         1 CLA     -0.112100
     56 C13        81.7206   57.1433   40.8151 a1         1 CLA      0.089200
     57 C14        80.3740   57.6376   40.2061 a3         1 CLA     -0.239100
     58 C15        81.9598   57.7220   42.2448 a2         1 CLA     -0.102200
     59 C16        82.1959   59.2886   42.3508 a2         1 CLA      0.023900
     60 C17        82.6025   59.5873   43.8140 a2         1 CLA     -0.105700
     61 C18        82.8680   61.0955   44.1808 a1         1 CLA      0.206800
     62 C19        81.7904   62.1139   43.9143 a3         1 CLA     -0.280100
     63 C20        83.3720   61.2545   45.6005 a3         1 CLA     -0.280100
     64 NC         73.3862   58.4103   39.7495 nx         1 CLA     -0.309200
     65 MG         74.7118   58.6792   38.1207 mg         1 CLA      0.895000
     66 HMD3       70.6001   54.2938   35.5199 dc         1 CLA      0.064300
     67 HMD2       70.5427   54.4475   37.3240 dc         1 CLA      0.064300
     68 HMD1       69.7657   55.6867   36.2707 dc         1 CLA      0.064300
     69 HMC3       73.3361   58.5433   43.8465 dc         1 CLA      0.052100
     70 HMC2       72.3104   59.9168   43.5070 dc         1 CLA      0.052100
     71 HMC1       71.5993   58.2776   43.8867 dc         1 CLA      0.052100
     72 HMB3       79.1259   62.5368   40.5952 dc         1 CLA      0.063600
     73 HMB2       80.0365   60.9958   40.6032 dc         1 CLA      0.063600
     74 HMB1       79.6380   61.8436   39.0629 dc         1 CLA      0.063600
     75 HMA3       80.2802   58.6335   37.0768 dc         1 CLA      0.058300
     76 HMA2       79.4018   57.1125   37.2277 dc         1 CLA      0.058300
     77 HMA1       80.4829   57.4282   35.8828 dc         1 CLA      0.058300
     78 HED3       77.9945   53.0093   34.3556 dc         1 CLA      0.079300
     79 HED2       77.2698   52.3377   35.7808 dc         1 CLA      0.079300
     80 HED1       76.4573   52.1751   34.1035 dc         1 CLA      0.079300
     81 HBC3       70.6057   55.1333   40.3593 dc         1 CLA      0.016300
     82 HBC2       71.8938   55.2066   41.5342 dc         1 CLA      0.016300
     83 HBC1       70.1195   54.7747   41.9860 dc         1 CLA      0.016300
     84 HBB2       76.4106   62.8053   44.0812 da         1 CLA      0.183000
     85 HBB1       75.2466   62.3580   42.7470 da         1 CLA      0.183000
     86 HBA2       78.7169   58.4342   31.6011 dc         1 CLA      0.029400
     87 HBA1       79.7051   58.3781   33.0436 dc         1 CLA      0.029400
     88 HAC2       70.3885   57.0335   42.7072 dc         1 CLA      0.029300
     89 HAC1       69.5838   57.2403   41.3038 dc         1 CLA      0.029300
     90 HAA2       76.8301   57.5103   32.7675 dc         1 CLA      0.028700
     91 HAA1       77.1641   58.9623   33.2975 dc         1 CLA      0.028700
     92 H203       82.5681   61.1936   46.2510 dc         1 CLA      0.065600
     93 H202       83.9994   60.3857   45.8576 dc         1 CLA      0.065600
     94 H201       83.8586   62.2187   45.6232 dc         1 CLA      0.065600
     95 H193       82.0587   63.0868   44.2970 dc         1 CLA      0.065600
     96 H192       81.5808   62.1763   42.8919 dc         1 CLA      0.065600
     97 H191       80.8899   61.8216   44.4558 dc         1 CLA      0.065600
     98 H172       81.8692   59.0860   44.4924 dc         1 CLA      0.027600
     99 H171       83.5518   59.0565   44.0364 dc         1 CLA      0.027600
    100 H162       82.9722   59.7029   41.6953 dc         1 CLA      0.002900
    101 H161       81.2716   59.8452   42.3490 dc         1 CLA      0.002900
    102 H152       81.0029   57.4172   42.6911 dc         1 CLA      0.029100
    103 H151       82.7053   57.2124   42.7683 dc         1 CLA      0.029100
    104 H143       79.9781   56.9261   39.4786 dc         1 CLA      0.063600
    105 H142       79.5672   57.8464   40.9020 dc         1 CLA      0.063600
    106 H141       80.5934   58.6096   39.7832 dc         1 CLA      0.063600
    107 H122       83.9030   56.8451   40.4216 dc         1 CLA      0.032500
    108 H121       83.2311   58.2556   39.7193 dc         1 CLA      0.032500
    109 H112       82.6238   57.1786   37.7831 dc         1 CLA      0.006600
    110 H111       82.4697   55.5934   38.6879 dc         1 CLA      0.006600
    111 H102       84.9964   55.6014   38.5749 dc         1 CLA      0.024100
    112 H101       84.8679   57.3014   38.1835 dc         1 CLA      0.024100
    113 HHD        70.8115   56.3981   38.7649 da         1 CLA      0.174300
    114 HHC        74.7638   60.2037   42.3757 da         1 CLA      0.136800
    115 HHB        79.0070   60.2584   37.7539 da         1 CLA      0.138300
    116 HBD        74.8270   56.2967   32.9884 dc         1 CLA      0.107700
    117 HAB        78.1247   61.7133   42.8076 da         1 CLA      0.155200
    118 H93        86.1798   57.3678   36.0074 dc         1 CLA      0.069500
    119 H92        86.6136   55.6361   36.4246 dc         1 CLA      0.069500
    120 H91        86.0779   56.1669   34.8876 dc         1 CLA      0.069500
    121 H8         83.8479   56.5717   35.8128 dc         1 CLA      0.029300
    122 H72        83.0728   54.3589   36.4730 dc         1 CLA      0.044400
    123 H71        84.7296   53.8232   36.7747 dc         1 CLA      0.044400
    124 H62        85.0999   54.1162   34.3940 dc         1 CLA      0.015600
    125 H61        83.6326   55.0429   34.0553 dc         1 CLA      0.015600
    126 H52        83.5361   51.9253   34.8919 dc         1 CLA      0.033200
    127 H51        83.2339   52.6504   33.2464 dc         1 CLA      0.033200
    128 H43        81.4386   51.6642   36.1428 dc         1 CLA      0.037000
    129 H42        79.8499   52.1908   35.3358 dc         1 CLA      0.037000
    130 H41        80.9406   51.0475   34.5303 dc         1 CLA      0.037000
    131 H3A        79.0155   59.3746   35.1301 dc         1 CLA      0.041100
    132 H2A        77.9140   56.5715   34.9653 dc         1 CLA      0.083100
    133 H2         81.2792   54.8857   35.2574 da         1 CLA      0.180900
    134 H18        83.7484   61.2987   43.6437 dc         1 CLA     -0.003900
    135 H13        81.5642   56.0958   40.8375 dc         1 CLA      0.019700
    136 H12        79.4689   54.1047   32.8792 dc         1 CLA      0.120400
    137 H11        81.1590   54.4795   32.2759 dc         1 CLA      0.120400
    138 C1         67.0881   59.9933   48.3818 Z1         2 LUT      0.509236
    139 C2         65.6322   60.0695   49.0529 Z2         2 LUT     -0.434695
    140 C3         65.0682   61.4024   49.6544 Z3         2 LUT      0.437453
    141 O3         65.6690   61.5275   50.8982 S1         2 LUT     -0.547129
    142 C4         65.5470   62.5569   48.7623 Z4         2 LUT     -0.468603
    143 C5         66.2056   62.1907   47.5103 Z5         2 LUT      0.279246
    144 C6         67.0503   61.0755   47.3131 Z6         2 LUT     -0.305473
    145 C7         67.6030   60.7161   45.9692 Z7         2 LUT      0.069402
    146 C8         68.4766   61.4270   45.2391 Z8         2 LUT     -0.191631
    147 C9         68.9851   61.0906   43.8684 Z9         2 LUT      0.196698
    148 C10        69.9371   61.9498   43.4464 Y1         2 LUT     -0.208611
    149 C11        70.5740   61.9935   42.1685 Y2         2 LUT      0.030784
    150 C12        71.7156   62.6394   41.9507 Y3         2 LUT     -0.220316
    151 C13        72.5257   62.6948   40.7032 Y4         2 LUT      0.215937
    152 C14        73.6098   63.4963   40.8367 Y5         2 LUT     -0.185793
    153 C15        74.6998   63.7616   39.9573 Y6         2 LUT     -0.057835
    154 C16        67.6013   58.5634   47.9544 Y7         2 LUT     -0.405615
    155 C17        68.0350   60.4839   49.4892 Y7         2 LUT     -0.405615
    156 C18        65.6131   62.9490   46.3172 Y9         2 LUT     -0.369639
    157 C19        68.4779   59.7878   43.2191 W1         2 LUT     -0.333362
    158 C20        72.0679   61.8759   39.5609 W2         2 LUT     -0.323439
    159 C21        86.4041   64.8214   34.2651 Z1         2 LUT      0.406104
    160 C22        87.0147   64.1655   32.9996 Z2         2 LUT     -0.404965
    161 C23        87.3558   65.1837   31.9433 Z3         2 LUT      0.391255
    162 O23        87.9227   64.3873   30.8630 S1         2 LUT     -0.528210
    163 C24        86.0132   65.9188   31.6379 W6         2 LUT     -0.258361
    164 C25        84.9475   66.0257   32.4998 Z5         2 LUT      0.133546
    165 C26        85.1016   65.5141   33.8242 W8         2 LUT     -0.147008
    166 C27        84.3272   66.2460   34.9517 Z7         2 LUT      0.023843
    167 C28        83.1813   65.7507   35.5274 Z8         2 LUT     -0.216987
    168 C29        82.3634   66.3507   36.6163 Z9         2 LUT      0.206524
    169 C30        81.1949   65.7531   36.9765 Y1         2 LUT     -0.215556
    170 C31        80.3388   65.8752   38.1107 Y2         2 LUT      0.025142
    171 C32        79.2045   65.0816   38.3643 Y3         2 LUT     -0.212209
    172 C33        78.1827   65.1018   39.4281 Y4         2 LUT      0.240937
    173 C34        76.9871   64.3218   39.3755 Y5         2 LUT     -0.218862
    174 C35        75.9072   64.3190   40.3350 Y6         2 LUT     -0.023547
    175 C36        87.3402   66.0009   34.9073 Y7         2 LUT     -0.393485
    176 C37        86.1921   63.7866   35.3198 Y7         2 LUT     -0.393485
    177 C38        83.7457   66.9165   32.1880 Y9         2 LUT     -0.387526
    178 C39        82.9460   67.5201   37.3841 W1         2 LUT     -0.322618
    179 C40        78.4353   66.0933   40.5480 W2         2 LUT     -0.358472
    180 H403       78.0914   67.0530   40.2553 R7         2 LUT      0.097720
    181 H402       77.9772   65.8048   41.5095 R7         2 LUT      0.097720
    182 H401       79.5121   66.0350   40.7676 R7         2 LUT      0.097720
    183 H393       82.2639   67.8712   38.1678 R4         2 LUT      0.082505
    184 H392       83.8683   67.2617   37.9458 R4         2 LUT      0.082505
    185 H391       83.2238   68.4366   36.8261 R4         2 LUT      0.082505
    186 H383       83.2675   67.5615   32.9320 R1         2 LUT      0.104030
    187 H382       83.9994   67.5607   31.3732 R1         2 LUT      0.104030
    188 H381       82.8803   66.3319   31.7302 R1         2 LUT      0.104030
    189 H373       85.3744   63.1243   34.9737 T4         2 LUT      0.089537
    190 H372       86.9351   63.0785   35.5505 T4         2 LUT      0.089537
    191 H371       85.8107   64.1935   36.2748 T4         2 LUT      0.089537
    192 H363       86.8784   66.5210   35.7628 T4         2 LUT      0.089537
    193 H362       88.3028   65.5019   35.2324 T4         2 LUT      0.089537
    194 H361       87.6907   66.7611   34.1859 T4         2 LUT      0.089537
    195 H222       88.0322   63.7363   33.3086 U2         2 LUT      0.127376
    196 H221       86.3145   63.4440   32.5491 U2         2 LUT      0.127376
    197 H203       71.8480   60.7985   39.8136 R7         2 LUT      0.087068
    198 H202       71.1658   62.2366   39.0837 R7         2 LUT      0.087068
    199 H201       72.7991   61.9146   38.7261 R7         2 LUT      0.087068
    200 H193       69.1299   59.3071   42.4707 R4         2 LUT      0.089716
    201 H192       68.3121   59.0264   43.9385 R4         2 LUT      0.089716
    202 H191       67.4999   59.8847   42.7906 R4         2 LUT      0.089716
    203 H183       65.7318   64.0424   46.4735 R1         2 LUT      0.094572
    204 H182       66.1026   62.7428   45.3497 R1         2 LUT      0.094572
    205 H181       64.5867   62.7221   46.1961 R1         2 LUT      0.094572
    206 H173       67.8592   61.4784   49.6989 T4         2 LUT      0.093752
    207 H172       67.9524   60.0588   50.4580 T4         2 LUT      0.093752
    208 H171       69.0798   60.4779   49.1214 T4         2 LUT      0.093752
    209 H163       68.6141   58.5790   47.5437 T4         2 LUT      0.093752
    210 H162       67.6429   57.8434   48.7675 T4         2 LUT      0.093752
    211 H161       66.7888   58.1570   47.3339 T4         2 LUT      0.093752
    212 HO3        65.0564   61.1432   51.5518 Q1         2 LUT      0.300121
    213 H8         68.8126   62.3681   45.6728 U7         2 LUT      0.080784
    214 H7         67.1941   59.7949   45.5022 U6         2 LUT      0.042190
    215 H42        64.6741   63.2442   48.7141 U5         2 LUT      0.145166
    216 H41        66.1236   63.3139   49.3961 U5         2 LUT      0.145166
    217 H35        75.9993   64.7390   41.3558 T3         2 LUT      0.077919
    218 H34        76.8701   63.8312   38.3705 T2         2 LUT      0.073626
    219 H32        78.9291   64.3631   37.6111 T1         2 LUT      0.092510
    220 H31        80.4950   66.6009   38.9120 U9         2 LUT      0.070048
    221 H30        81.0240   64.8758   36.3236 U8         2 LUT      0.085442
    222 H3         63.9633   61.3468   49.5888 U3         2 LUT     -0.031596
    223 H28        82.8353   64.8141   35.1154 U7         2 LUT      0.084728
    224 H27        84.5616   67.3319   35.2554 U6         2 LUT      0.087291
    225 H26        84.3723   64.6843   33.7147 Q6         2 LUT      0.075325
    226 H24        86.0520   66.5510   30.6536 Q5         2 LUT      0.094482
    227 H23        88.1019   65.9266   32.1842 U3         2 LUT     -0.024869
    228 H22        64.8435   59.8655   48.3247 U2         2 LUT      0.127376
    229 H21        65.6780   59.3165   49.8472 U2         2 LUT      0.127376
    230 H15        74.6067   63.3409   38.9433 T3         2 LUT      0.093200
    231 H14        73.7796   64.1911   41.7094 T2         2 LUT      0.068865
    232 H12        72.0382   63.1960   42.7702 T1         2 LUT      0.095507
    233 H11        70.1076   61.4955   41.3986 U9         2 LUT      0.068930
    234 H10        70.3208   62.7767   44.0930 U8         2 LUT      0.083911
    235 H1         87.3934   64.2650   30.0226 Q1         2 LUT      0.297311
@<TRIPOS>BOND
    1     6     1 1
    2     7     2 1
    3     8     3 1
    4     9     4 1
    5    11     4 1
    6    12     6 1
    7    13     9 1
    8    16     9 1
    9    25     5 1
   10    25    16 1
   11    26    10 1
   12    26    17 1
   13    27    18 1
   14    28    14 1
   15    28    19 1
   16    29    12 1
   17    30    13 1
   18    31    24 1
   19    32     1 1
   20    32    25 1
   21    33    21 1
   22    33    26 1
   23    34    22 1
   24    34    27 1
   25    35    23 1
   26    35    28 1
   27    36    12 1
   28    36    24 1
   29    37    13 1
   30    37    15 1
   31    38    31 1
   32    39    20 1
   33    39    32 1
   34    40     2 1
   35    40    33 1
   36    41     3 1
   37    41    34 1
   38    42     4 1
   39    42    35 1
   40    43    38 1
   41    44     5 1
   42    44    17 1
   43    44    39 1
   44    45    10 1
   45    45    18 1
   46    45    40 1
   47    46    19 1
   48    46    41 1
   49    47    14 1
   50    47    16 1
   51    47    42 1
   52    48    38 1
   53    49    48 1
   54    50    49 1
   55    51    50 1
   56    52    51 1
   57    53    51 1
   58    54    53 1
   59    55    54 1
   60    56    55 1
   61    57    56 1
   62    58    56 1
   63    59    58 1
   64    60    59 1
   65    61    60 1
   66    62    61 1
   67    63    61 1
   68    64    27 1
   69    64    46 1
   70    65     5 1
   71    65    10 1
   72    65    64 1
   73    65    14 1
   74    66    23 1
   75    67    23 1
   76    68    23 1
   77    69    22 1
   78    70    22 1
   79    71    22 1
   80    72    21 1
   81    73    21 1
   82    74    21 1
   83    75    20 1
   84    76    20 1
   85    77    20 1
   86    78    15 1
   87    79    15 1
   88    80    15 1
   89    81     8 1
   90    82     8 1
   91    83     8 1
   92    84     7 1
   93    85     7 1
   94    86     6 1
   95    87     6 1
   96    88     3 1
   97    89     3 1
   98    90     1 1
   99    91     1 1
  100    92    63 1
  101    93    63 1
  102    94    63 1
  103    95    62 1
  104    96    62 1
  105    97    62 1
  106    98    60 1
  107    99    60 1
  108   100    59 1
  109   101    59 1
  110   102    58 1
  111   103    58 1
  112   104    57 1
  113   105    57 1
  114   106    57 1
  115   107    55 1
  116   108    55 1
  117   109    54 1
  118   110    54 1
  119   111    53 1
  120   112    53 1
  121   113    19 1
  122   114    18 1
  123   115    17 1
  124   116     9 1
  125   117     2 1
  126   118    52 1
  127   119    52 1
  128   120    52 1
  129   121    51 1
  130   122    50 1
  131   123    50 1
  132   124    49 1
  133   125    49 1
  134   126    48 1
  135   127    48 1
  136   128    43 1
  137   129    43 1
  138   130    43 1
  139   131    39 1
  140   132    32 1
  141   133    31 1
  142   134    61 1
  143   135    56 1
  144   136    24 1
  145   137    24 1
  146   139   138 1
  147   140   139 1
  148   141   140 1
  149   142   140 1
  150   143   142 1
  151   144   138 1
  152   144   143 1
  153   145   144 1
  154   146   145 1
  155   147   146 1
  156   148   147 1
  157   149   148 1
  158   150   149 1
  159   151   150 1
  160   152   151 1
  161   153   152 1
  162   154   138 1
  163   155   138 1
  164   156   143 1
  165   157   147 1
  166   158   151 1
  167   160   159 1
  168   161   160 1
  169   162   161 1
  170   163   161 1
  171   164   163 1
  172   165   159 1
  173   165   164 1
  174   166   165 1
  175   167   166 1
  176   168   167 1
  177   169   168 1
  178   170   169 1
  179   171   170 1
  180   172   171 1
  181   173   172 1
  182   174   153 1
  183   174   173 1
  184   175   159 1
  185   176   159 1
  186   177   164 1
  187   178   168 1
  188   179   172 1
  189   180   179 1
  190   181   179 1
  191   182   179 1
  192   183   178 1
  193   184   178 1
  194   185   178 1
  195   186   177 1
  196   187   177 1
  197   188   177 1
  198   189   176 1
  199   190   176 1
  200   191   176 1
  201   192   175 1
  202   193   175 1
  203   194   175 1
  204   195   160 1
  205   196   160 1
  206   197   158 1
  207   198   158 1
  208   199   158 1
  209   200   157 1
  210   201   157 1
  211   202   157 1
  212   203   156 1
  213   204   156 1
  214   205   156 1
  215   206   155 1
  216   207   155 1
  217   208   155 1
  218   209   154 1
  219   210   154 1
  220   211   154 1
  221   212   141 1
  222   213   146 1
  223   214   145 1
  224   215   142 1
  225   216   142 1
  226   217   174 1
  227   218   173 1
  228   219   171 1
  229   220   170 1
  230   221   169 1
  231   222   140 1
  232   223   167 1
  233   224   166 1
  234   225   165 1
  235   226   163 1
  236   227   161 1
  237   228   139 1
  238   229   139 1
  239   230   153 1
  240   231   152 1
  241   232   150 1
  242   233   149 1
  243   234   148 1
  244   235   162 1
  245   65    153 1
  246   65    174 1
@<TRIPOS>SUBSTRUCTURE
      1 CLA               1 ****               0 ****  **** 
      2 LUT             138 ****               0 ****  **** 
