@<TRIPOS>MOLECULE
Cpptraj generated mol2 file.
  235   246     2     0     0
SMALL
USER_CHARGES


@<TRIPOS>ATOM
      1 CAA        80.2250   58.1598   35.2105 a2         1 CLA     -0.055900
      2 CAB        80.3464   61.7972   44.3781 c8         1 CLA     -0.148500
      3 CAC        73.3926   57.7978   43.8857 a2         1 CLA     -0.012600
      4 CAD        76.0047   55.5626   36.5588 ck         1 CLA      0.398800
      5 NA         79.2774   58.4956   38.7985 ns         1 CLA     -0.225500
      6 CBA        81.5293   58.0975   34.3929 a2         1 CLA     -0.135000
      7 CBB        81.4598   61.9626   45.1844 c0         1 CLA     -0.395200
      8 CBC        73.6437   56.2597   44.1181 a3         1 CLA     -0.037700
      9 CBD        77.4874   56.0041   36.3573 a1         1 CLA     -0.053900
     10 NB         79.2548   59.8427   41.4439 nm         1 CLA     -0.295700
     11 OBD        75.5016   54.6456   35.8791 o2         1 CLA     -0.494600
     12 CGA        82.1063   56.7075   34.0004 c4         1 CLA      0.827000
     13 CGD        78.3621   54.8198   36.5161 c4         1 CLA      0.655300
     14 ND         76.2979   57.8462   39.2465 nm         1 CLA     -0.291600
     15 CED        79.4697   53.3439   38.1634 a3         1 CLA      0.005400
     16 CHA        77.7903   57.0536   37.4167 cs         1 CLA     -0.123800
     17 CHB        81.0968   59.7745   39.7877 aa         1 CLA     -0.291900
     18 CHC        77.9445   60.0953   43.3249 aa         1 CLA     -0.090400
     19 CHD        74.4308   57.7129   40.8598 aa         1 CLA     -0.052000
     20 CMA        82.6512   57.8443   37.8125 a3         1 CLA     -0.230700
     21 CMB        82.5811   61.6114   41.8208 a3         1 CLA     -0.180800
     22 CMC        75.4523   59.7507   45.4476 a3         1 CLA     -0.134000
     23 CMD        73.1451   55.8925   38.5856 a3         1 CLA     -0.141100
     24 C1         82.6601   54.5054   34.8113 a2         1 CLA      0.023000
     25 C1A        79.0625   57.6433   37.6774 ac         1 CLA     -0.015100
     26 C1B        80.5397   60.1714   41.0201 cr         1 CLA      0.054700
     27 C1C        76.6829   59.5706   43.0336 cn         1 CLA     -0.005600
     28 C1D        75.0079   57.4244   39.5982 ap         1 CLA     -0.047300
     29 O1A        82.0398   56.2521   32.8708 o2         1 CLA     -0.610800
     30 O1D        79.1786   54.5039   35.6661 o2         1 CLA     -0.558200
     31 C2         83.3211   53.8910   36.0337 c8         1 CLA     -0.325100
     32 C2A        80.3443   57.6974   36.7450 a1         1 CLA      0.098600
     33 C2B        81.1989   60.9891   42.0571 cb         1 CLA      0.088500
     34 C2C        75.4965   59.3472   43.9476 cb         1 CLA      0.053700
     35 C2D        74.4926   56.5520   38.5843 cb         1 CLA      0.058900
     36 O2A        82.5510   55.9322   35.0423 o1         1 CLA     -0.437200
     37 O2D        78.3194   54.2043   37.7824 o1         1 CLA     -0.357600
     38 C3         84.5527   53.3805   36.1406 c5         1 CLA      0.031200
     39 C3A        81.3249   58.6105   37.5064 a1         1 CLA      0.166800
     40 C3B        80.2833   61.1197   43.0754 cb         1 CLA      0.035000
     41 C3C        74.6175   58.5244   43.2587 cb         1 CLA     -0.089900
     42 C3D        75.6109   56.3290   37.7087 cb         1 CLA     -0.035900
     43 C4         84.7365   51.8339   35.7607 a3         1 CLA     -0.053300
     44 C4A        80.5190   59.0201   38.7392 ac         1 CLA      0.001800
     45 C4B        79.0973   60.3411   42.6755 cn         1 CLA     -0.020900
     46 C4C        75.0833   58.4425   41.9150 cr         1 CLA     -0.044400
     47 C4D        76.6197   57.1971   38.1538 c6         1 CLA     -0.046000
     48 C5         85.8178   54.2029   36.5074 a2         1 CLA     -0.070400
     49 C6         85.6173   55.1954   37.6622 a2         1 CLA      0.043900
     50 C7         86.9540   55.9090   37.9804 a2         1 CLA     -0.150000
     51 C8         87.0800   56.4792   39.4228 a1         1 CLA      0.064200
     52 C9         85.9510   57.4592   39.8147 a3         1 CLA     -0.259300
     53 C10        88.5448   57.0927   39.6555 a2         1 CLA     -0.071900
     54 C11        88.8594   57.5224   41.1046 a2         1 CLA      0.014500
     55 C12        89.1571   56.3110   42.0117 a2         1 CLA     -0.112100
     56 C13        89.2995   56.7535   43.5013 a1         1 CLA      0.089200
     57 C14        89.9887   55.6405   44.2514 a3         1 CLA     -0.239100
     58 C15        87.9164   57.2484   44.1400 a2         1 CLA     -0.102200
     59 C16        88.0008   57.8826   45.5595 a2         1 CLA      0.023900
     60 C17        86.6266   58.2877   46.0225 a2         1 CLA     -0.105700
     61 C18        86.3663   58.5600   47.5163 a1         1 CLA      0.206800
     62 C19        87.3579   59.5726   48.1874 a3         1 CLA     -0.280100
     63 C20        84.8839   59.0333   47.7534 a3         1 CLA     -0.280100
     64 NC         76.3345   59.1256   41.7920 nx         1 CLA     -0.309200
     65 MG         77.6987   59.0024   40.2613 mg         1 CLA      0.895000
     66 HMD3       73.0791   55.1096   39.3201 dc         1 CLA      0.064300
     67 HMD2       72.3843   56.5941   38.4768 dc         1 CLA      0.064300
     68 HMD1       73.1527   55.3654   37.6773 dc         1 CLA      0.064300
     69 HMC3       74.8789   60.6951   45.5716 dc         1 CLA      0.052100
     70 HMC2       74.8473   59.0305   46.0201 dc         1 CLA      0.052100
     71 HMC1       76.4509   59.7176   45.9515 dc         1 CLA      0.052100
     72 HMB3       82.6483   62.5799   42.3969 dc         1 CLA      0.063600
     73 HMB2       83.3224   60.9100   42.2282 dc         1 CLA      0.063600
     74 HMB1       82.8206   61.7536   40.8158 dc         1 CLA      0.063600
     75 HMA3       83.3130   58.4854   38.4116 dc         1 CLA      0.058300
     76 HMA2       82.4319   56.8651   38.3222 dc         1 CLA      0.058300
     77 HMA1       83.1819   57.6707   36.8492 dc         1 CLA      0.058300
     78 HED3       79.3187   52.4256   37.6389 dc         1 CLA      0.079300
     79 HED2       80.3639   53.7293   37.7770 dc         1 CLA      0.079300
     80 HED1       79.4850   53.2514   39.2196 dc         1 CLA      0.079300
     81 HBC3       74.4576   56.1377   44.8111 dc         1 CLA      0.016300
     82 HBC2       72.7587   55.8793   44.4596 dc         1 CLA      0.016300
     83 HBC1       73.8202   55.7886   43.1705 dc         1 CLA      0.016300
     84 HBB2       81.4623   62.5188   46.1344 da         1 CLA      0.183000
     85 HBB1       82.4585   61.5216   44.9238 da         1 CLA      0.183000
     86 HBA2       81.2702   58.5605   33.4145 dc         1 CLA      0.029400
     87 HBA1       82.2797   58.7715   34.8644 dc         1 CLA      0.029400
     88 HAC2       73.1787   58.0491   44.9124 dc         1 CLA      0.029300
     89 HAC1       72.4854   57.9782   43.3019 dc         1 CLA      0.029300
     90 HAA2       79.4511   57.5160   34.7806 dc         1 CLA      0.028700
     91 HAA1       79.7987   59.1708   35.0965 dc         1 CLA      0.028700
     92 H203       84.7034   59.9257   47.1265 dc         1 CLA      0.065600
     93 H202       84.1871   58.2758   47.4633 dc         1 CLA      0.065600
     94 H201       84.7139   59.2771   48.8184 dc         1 CLA      0.065600
     95 H193       88.4371   59.4067   47.8957 dc         1 CLA      0.065600
     96 H192       87.3030   60.5946   47.8648 dc         1 CLA      0.065600
     97 H191       87.2779   59.6134   49.2521 dc         1 CLA      0.065600
     98 H172       86.3093   59.1116   45.5059 dc         1 CLA      0.027600
     99 H171       85.9500   57.4082   45.7004 dc         1 CLA      0.027600
    100 H162       88.3774   57.0860   46.1767 dc         1 CLA      0.002900
    101 H161       88.6310   58.8207   45.4422 dc         1 CLA      0.002900
    102 H152       87.5632   58.0660   43.5660 dc         1 CLA      0.029100
    103 H151       87.1413   56.4470   44.1133 dc         1 CLA      0.029100
    104 H143       90.9422   55.4486   43.7955 dc         1 CLA      0.063600
    105 H142       90.0544   55.9682   45.2856 dc         1 CLA      0.063600
    106 H141       89.4433   54.7102   44.2527 dc         1 CLA      0.063600
    107 H122       88.3541   55.5876   41.9798 dc         1 CLA      0.032500
    108 H121       90.1165   55.9151   41.7536 dc         1 CLA      0.032500
    109 H112       89.7224   58.1915   40.9869 dc         1 CLA      0.006600
    110 H111       88.0961   58.0702   41.5021 dc         1 CLA      0.006600
    111 H102       89.3088   56.4859   39.2760 dc         1 CLA      0.024100
    112 H101       88.6202   58.0007   39.0186 dc         1 CLA      0.024100
    113 HHD        73.4542   57.3112   41.0300 da         1 CLA      0.174300
    114 HHC        77.9736   60.4386   44.4004 da         1 CLA      0.136800
    115 HHB        82.1323   60.1003   39.6712 da         1 CLA      0.138300
    116 HBD        77.6409   56.4301   35.3524 dc         1 CLA      0.107700
    117 HAB        79.3723   62.1702   44.7562 da         1 CLA      0.155200
    118 H93        86.2564   58.4376   39.3722 dc         1 CLA      0.069500
    119 H92        84.9677   57.0835   39.4930 dc         1 CLA      0.069500
    120 H91        85.9992   57.6730   40.8964 dc         1 CLA      0.069500
    121 H8         87.0221   55.6373   40.0739 dc         1 CLA      0.029300
    122 H72        87.7444   55.1474   37.9462 dc         1 CLA      0.044400
    123 H71        87.1336   56.6262   37.1379 dc         1 CLA      0.044400
    124 H62        84.8988   55.9853   37.3962 dc         1 CLA      0.015600
    125 H61        85.3216   54.7044   38.5784 dc         1 CLA      0.015600
    126 H52        86.6645   53.4972   36.7704 dc         1 CLA      0.033200
    127 H51        85.9917   54.8664   35.7267 dc         1 CLA      0.033200
    128 H43        83.8205   51.4589   35.3658 dc         1 CLA      0.037000
    129 H42        85.4750   51.6949   35.0094 dc         1 CLA      0.037000
    130 H41        84.8631   51.1965   36.6567 dc         1 CLA      0.037000
    131 H3A        81.6314   59.5034   36.8920 dc         1 CLA      0.041100
    132 H2A        80.7051   56.6481   36.7911 dc         1 CLA      0.083100
    133 H2         82.6788   53.8811   36.8550 da         1 CLA      0.180900
    134 H18        86.4216   57.6154   48.0439 dc         1 CLA     -0.003900
    135 H13        89.9448   57.6612   43.4452 dc         1 CLA      0.019700
    136 H12        81.6351   54.1208   34.6544 dc         1 CLA      0.120400
    137 H11        83.3127   54.2481   33.9508 dc         1 CLA      0.120400
    138 C1         69.9346   61.2362   50.5724 Z1         2 LUT      0.509236
    139 C2         68.5995   60.9660   51.1045 Z2         2 LUT     -0.434695
    140 C3         67.6396   62.0987   51.4465 Z3         2 LUT      0.437453
    141 O3         67.9541   62.6319   52.7038 S1         2 LUT     -0.547129
    142 C4         67.8101   63.2346   50.4832 Z4         2 LUT     -0.468603
    143 C5         68.7587   63.0787   49.3388 Z5         2 LUT      0.279246
    144 C6         69.7255   62.1302   49.2967 Z6         2 LUT     -0.305473
    145 C7         70.2861   61.6266   48.0723 Z7         2 LUT      0.069402
    146 C8         71.1966   62.2785   47.3043 Z8         2 LUT     -0.191631
    147 C9         71.9366   61.8652   46.1320 Z9         2 LUT      0.196698
    148 C10        72.8681   62.7474   45.6069 Y1         2 LUT     -0.208611
    149 C11        73.6549   62.5717   44.4340 Y2         2 LUT      0.030784
    150 C12        74.8219   63.2915   44.2840 Y3         2 LUT     -0.220316
    151 C13        75.7137   63.1347   43.1070 Y4         2 LUT      0.215937
    152 C14        76.9143   63.9012   43.2575 Y5         2 LUT     -0.185793
    153 C15        78.0381   64.0363   42.3018 Y6         2 LUT     -0.057835
    154 C16        70.5792   59.8399   50.2804 Y7         2 LUT     -0.405615
    155 C17        70.7607   62.0581   51.6830 Y7         2 LUT     -0.405615
    156 C18        68.2414   63.8774   48.1173 Y9         2 LUT     -0.369639
    157 C19        71.8147   60.5328   45.4779 W1         2 LUT     -0.333362
    158 C20        75.1096   62.6226   41.7853 W2         2 LUT     -0.323439
    159 C21        89.1145   65.2601   35.9675 Z1         2 LUT      0.406104
    160 C22        89.6791   64.5730   34.6621 Z2         2 LUT     -0.404965
    161 C23        89.9820   65.5313   33.5366 Z3         2 LUT      0.391255
    162 O23        90.6111   64.8199   32.4556 S1         2 LUT     -0.528210
    163 C24        88.8917   66.5845   33.4917 W6         2 LUT     -0.258361
    164 C25        87.8199   66.8427   34.3132 Z5         2 LUT      0.133546
    165 C26        87.7212   65.9435   35.6008 W8         2 LUT     -0.147008
    166 C27        87.1009   66.7287   36.6811 Z7         2 LUT      0.023843
    167 C28        85.9168   66.4487   37.2014 Z8         2 LUT     -0.216987
    168 C29        85.3645   66.8011   38.5564 Z9         2 LUT      0.206524
    169 C30        84.2403   66.1817   39.0078 Y1         2 LUT     -0.215556
    170 C31        83.5278   66.1571   40.2760 Y2         2 LUT      0.025142
    171 C32        82.4532   65.3738   40.5236 Y3         2 LUT     -0.212209
    172 C33        81.5552   65.3173   41.7132 Y4         2 LUT      0.240937
    173 C34        80.3543   64.6155   41.6557 Y5         2 LUT     -0.218862
    174 C35        79.3098   64.5648   42.5886 Y6         2 LUT     -0.023547
    175 C36        90.2734   66.2128   36.4595 Y7         2 LUT     -0.393485
    176 C37        89.0061   64.1935   37.0573 Y7         2 LUT     -0.393485
    177 C38        86.6889   67.7879   33.8916 Y9         2 LUT     -0.387526
    178 C39        86.2269   67.6379   39.5570 W1         2 LUT     -0.322618
    179 C40        81.9724   65.9753   42.9843 W2         2 LUT     -0.358472
    180 H403       81.8107   65.2928   43.8026 R7         2 LUT      0.097720
    181 H402       83.0721   66.2608   43.0565 R7         2 LUT      0.097720
    182 H401       81.4106   66.8769   43.2296 R7         2 LUT      0.097720
    183 H393       85.5946   68.3291   40.0783 R4         2 LUT      0.082505
    184 H392       86.7175   66.9451   40.2268 R4         2 LUT      0.082505
    185 H391       87.0030   68.1933   39.0050 R4         2 LUT      0.082505
    186 H383       86.8923   68.4331   33.0732 R1         2 LUT      0.104030
    187 H382       85.7613   67.2595   33.6806 R1         2 LUT      0.104030
    188 H381       86.5702   68.5075   34.7022 R1         2 LUT      0.104030
    189 H373       89.9336   63.5884   37.1198 T4         2 LUT      0.089537
    190 H372       88.9635   64.6451   38.0709 T4         2 LUT      0.089537
    191 H371       88.2334   63.4946   37.1271 T4         2 LUT      0.089537
    192 H363       90.2310   67.1435   35.8912 T4         2 LUT      0.089537
    193 H362       90.3260   66.6335   37.5094 T4         2 LUT      0.089537
    194 H361       91.3701   65.8619   36.3331 T4         2 LUT      0.089537
    195 H222       90.5368   63.8993   34.8746 U2         2 LUT      0.127376
    196 H221       88.9099   63.8461   34.3738 U2         2 LUT      0.127376
    197 H203       75.8890   62.4517   41.0224 R7         2 LUT      0.087068
    198 H202       74.7192   61.5866   41.8406 R7         2 LUT      0.087068
    199 H201       74.3836   63.1732   41.2623 R7         2 LUT      0.087068
    200 H193       70.9211   60.5564   44.7863 R4         2 LUT      0.089716
    201 H192       72.7168   60.1612   45.0136 R4         2 LUT      0.089716
    202 H191       71.6591   59.7727   46.2205 R4         2 LUT      0.089716
    203 H183       68.7380   64.8551   47.9758 R1         2 LUT      0.094572
    204 H182       68.5545   63.3445   47.2892 R1         2 LUT      0.094572
    205 H181       67.0985   63.9219   48.0264 R1         2 LUT      0.094572
    206 H173       70.2008   62.9865   51.8624 T4         2 LUT      0.093752
    207 H172       70.9949   61.5498   52.5714 T4         2 LUT      0.093752
    208 H171       71.7424   62.2427   51.1542 T4         2 LUT      0.093752
    209 H163       71.5086   59.9443   49.8210 T4         2 LUT      0.093752
    210 H162       70.6039   59.2493   51.2313 T4         2 LUT      0.093752
    211 H161       69.9670   59.2607   49.5528 T4         2 LUT      0.093752
    212 HO3        67.3193   62.4241   53.3629 Q1         2 LUT      0.300121
    213 H8         71.4508   63.2772   47.7134 U7         2 LUT      0.080784
    214 H7         69.8383   60.6858   47.6958 U6         2 LUT      0.042190
    215 H42        66.8366   63.4353   50.0836 U5         2 LUT      0.145166
    216 H41        67.9314   64.2103   50.9256 U5         2 LUT      0.145166
    217 H35        79.4464   64.9859   43.5652 T3         2 LUT      0.077919
    218 H34        80.1473   64.0788   40.8015 T2         2 LUT      0.073626
    219 H32        82.1334   64.7774   39.6476 T1         2 LUT      0.092510
    220 H31        83.9547   66.7424   41.0476 U9         2 LUT      0.070048
    221 H30        83.7003   65.6764   38.2145 U8         2 LUT      0.085442
    222 H3         66.6312   61.7007   51.1922 U3         2 LUT     -0.031596
    223 H28        85.4400   65.5472   36.8075 U7         2 LUT      0.084728
    224 H27        87.8007   67.2250   37.3282 U6         2 LUT      0.087291
    225 H26        87.3049   64.9819   35.5151 Q6         2 LUT      0.075325
    226 H24        88.9640   67.1714   32.5016 Q5         2 LUT      0.094482
    227 H23        90.8155   66.0394   34.0502 U3         2 LUT     -0.024869
    228 H22        68.1837   60.2151   50.4041 U2         2 LUT      0.127376
    229 H21        68.6322   60.4911   52.0507 U2         2 LUT      0.127376
    230 H15        77.6996   63.5411   41.3868 T3         2 LUT      0.093200
    231 H14        77.0742   64.5965   44.1898 T2         2 LUT      0.068865
    232 H12        75.1199   64.0547   45.0143 T1         2 LUT      0.095507
    233 H11        73.4503   61.7384   43.7842 U9         2 LUT      0.068930
    234 H10        73.0620   63.6601   46.2524 U8         2 LUT      0.083911
    235 H1         89.9590   64.5532   31.7826 Q1         2 LUT      0.297311
@<TRIPOS>BOND
    1     6     1 1
    2     7     2 1
    3     8     3 1
    4     9     4 1
    5    11     4 1
    6    12     6 1
    7    13     9 1
    8    16     9 1
    9    25     5 1
   10    25    16 1
   11    26    10 1
   12    26    17 1
   13    27    18 1
   14    28    14 1
   15    28    19 1
   16    29    12 1
   17    30    13 1
   18    31    24 1
   19    32     1 1
   20    32    25 1
   21    33    21 1
   22    33    26 1
   23    34    22 1
   24    34    27 1
   25    35    23 1
   26    35    28 1
   27    36    12 1
   28    36    24 1
   29    37    13 1
   30    37    15 1
   31    38    31 1
   32    39    20 1
   33    39    32 1
   34    40     2 1
   35    40    33 1
   36    41     3 1
   37    41    34 1
   38    42     4 1
   39    42    35 1
   40    43    38 1
   41    44     5 1
   42    44    17 1
   43    44    39 1
   44    45    10 1
   45    45    18 1
   46    45    40 1
   47    46    19 1
   48    46    41 1
   49    47    14 1
   50    47    16 1
   51    47    42 1
   52    48    38 1
   53    49    48 1
   54    50    49 1
   55    51    50 1
   56    52    51 1
   57    53    51 1
   58    54    53 1
   59    55    54 1
   60    56    55 1
   61    57    56 1
   62    58    56 1
   63    59    58 1
   64    60    59 1
   65    61    60 1
   66    62    61 1
   67    63    61 1
   68    64    27 1
   69    64    46 1
   70    65     5 1
   71    65    10 1
   72    65    64 1
   73    65    14 1
   74    66    23 1
   75    67    23 1
   76    68    23 1
   77    69    22 1
   78    70    22 1
   79    71    22 1
   80    72    21 1
   81    73    21 1
   82    74    21 1
   83    75    20 1
   84    76    20 1
   85    77    20 1
   86    78    15 1
   87    79    15 1
   88    80    15 1
   89    81     8 1
   90    82     8 1
   91    83     8 1
   92    84     7 1
   93    85     7 1
   94    86     6 1
   95    87     6 1
   96    88     3 1
   97    89     3 1
   98    90     1 1
   99    91     1 1
  100    92    63 1
  101    93    63 1
  102    94    63 1
  103    95    62 1
  104    96    62 1
  105    97    62 1
  106    98    60 1
  107    99    60 1
  108   100    59 1
  109   101    59 1
  110   102    58 1
  111   103    58 1
  112   104    57 1
  113   105    57 1
  114   106    57 1
  115   107    55 1
  116   108    55 1
  117   109    54 1
  118   110    54 1
  119   111    53 1
  120   112    53 1
  121   113    19 1
  122   114    18 1
  123   115    17 1
  124   116     9 1
  125   117     2 1
  126   118    52 1
  127   119    52 1
  128   120    52 1
  129   121    51 1
  130   122    50 1
  131   123    50 1
  132   124    49 1
  133   125    49 1
  134   126    48 1
  135   127    48 1
  136   128    43 1
  137   129    43 1
  138   130    43 1
  139   131    39 1
  140   132    32 1
  141   133    31 1
  142   134    61 1
  143   135    56 1
  144   136    24 1
  145   137    24 1
  146   139   138 1
  147   140   139 1
  148   141   140 1
  149   142   140 1
  150   143   142 1
  151   144   138 1
  152   144   143 1
  153   145   144 1
  154   146   145 1
  155   147   146 1
  156   148   147 1
  157   149   148 1
  158   150   149 1
  159   151   150 1
  160   152   151 1
  161   153   152 1
  162   154   138 1
  163   155   138 1
  164   156   143 1
  165   157   147 1
  166   158   151 1
  167   160   159 1
  168   161   160 1
  169   162   161 1
  170   163   161 1
  171   164   163 1
  172   165   159 1
  173   165   164 1
  174   166   165 1
  175   167   166 1
  176   168   167 1
  177   169   168 1
  178   170   169 1
  179   171   170 1
  180   172   171 1
  181   173   172 1
  182   174   153 1
  183   174   173 1
  184   175   159 1
  185   176   159 1
  186   177   164 1
  187   178   168 1
  188   179   172 1
  189   180   179 1
  190   181   179 1
  191   182   179 1
  192   183   178 1
  193   184   178 1
  194   185   178 1
  195   186   177 1
  196   187   177 1
  197   188   177 1
  198   189   176 1
  199   190   176 1
  200   191   176 1
  201   192   175 1
  202   193   175 1
  203   194   175 1
  204   195   160 1
  205   196   160 1
  206   197   158 1
  207   198   158 1
  208   199   158 1
  209   200   157 1
  210   201   157 1
  211   202   157 1
  212   203   156 1
  213   204   156 1
  214   205   156 1
  215   206   155 1
  216   207   155 1
  217   208   155 1
  218   209   154 1
  219   210   154 1
  220   211   154 1
  221   212   141 1
  222   213   146 1
  223   214   145 1
  224   215   142 1
  225   216   142 1
  226   217   174 1
  227   218   173 1
  228   219   171 1
  229   220   170 1
  230   221   169 1
  231   222   140 1
  232   223   167 1
  233   224   166 1
  234   225   165 1
  235   226   163 1
  236   227   161 1
  237   228   139 1
  238   229   139 1
  239   230   153 1
  240   231   152 1
  241   232   150 1
  242   233   149 1
  243   234   148 1
  244   235   162 1
  245   65    153 1
  246   65    174 1
@<TRIPOS>SUBSTRUCTURE
      1 CLA               1 ****               0 ****  **** 
      2 LUT             138 ****               0 ****  **** 
