@<TRIPOS>MOLECULE
Cpptraj generated mol2 file.
  235   246     2     0     0
SMALL
USER_CHARGES


@<TRIPOS>ATOM
      1 CAA        77.9686   57.6923   34.7582 a2         1 CLA     -0.055900
      2 CAB        77.8311   62.2029   43.6270 c8         1 CLA     -0.148500
      3 CAC        71.0949   57.9865   43.1616 a2         1 CLA     -0.012600
      4 CAD        73.9604   55.2633   36.0701 ck         1 CLA      0.398800
      5 NA         76.9601   58.4763   38.0960 ns         1 CLA     -0.225500
      6 CBA        79.1083   57.5183   33.7791 a2         1 CLA     -0.135000
      7 CBB        78.9478   62.5321   44.2362 c0         1 CLA     -0.395200
      8 CBC        71.2922   56.4487   43.3525 a3         1 CLA     -0.037700
      9 CBD        75.4995   55.6242   35.8917 a1         1 CLA     -0.053900
     10 NB         76.7855   60.1509   40.5992 nm         1 CLA     -0.295700
     11 OBD        73.3884   54.3835   35.4778 o2         1 CLA     -0.494600
     12 CGA        79.7031   56.0963   33.4155 c4         1 CLA      0.827000
     13 CGD        76.2673   54.3254   35.9487 c4         1 CLA      0.655300
     14 ND         74.2932   57.4871   38.7530 nm         1 CLA     -0.291600
     15 CED        76.3087   52.2643   37.5112 a3         1 CLA      0.005400
     16 CHA        75.8193   56.6860   36.9272 cs         1 CLA     -0.123800
     17 CHB        78.6980   59.9711   39.1087 aa         1 CLA     -0.291900
     18 CHC        75.4514   60.4909   42.6433 aa         1 CLA     -0.090400
     19 CHD        72.3426   57.5815   40.2595 aa         1 CLA     -0.052000
     20 CMA        80.4549   57.9746   37.4837 a3         1 CLA     -0.230700
     21 CMB        80.0599   61.8694   41.2206 a3         1 CLA     -0.180800
     22 CMC        73.2076   59.9646   44.5893 a3         1 CLA     -0.134000
     23 CMD        71.0792   55.5774   38.0765 a3         1 CLA     -0.141100
     24 C1         80.3609   54.1135   34.4544 a2         1 CLA      0.023000
     25 C1A        76.9630   57.4853   37.1293 ac         1 CLA     -0.015100
     26 C1B        78.0350   60.5132   40.2433 cr         1 CLA      0.054700
     27 C1C        74.2934   59.7786   42.3076 cn         1 CLA     -0.005600
     28 C1D        72.9852   57.0948   39.1096 ap         1 CLA     -0.047300
     29 O1A        79.6216   55.5427   32.3600 o2         1 CLA     -0.610800
     30 O1D        77.0155   53.8869   35.1165 o2         1 CLA     -0.558200
     31 C2         80.7042   53.4774   35.8513 c8         1 CLA     -0.325100
     32 C2A        78.2794   57.4590   36.2524 a1         1 CLA      0.098600
     33 C2B        78.6517   61.3039   41.3155 cb         1 CLA      0.088500
     34 C2C        73.2537   59.4440   43.2128 cb         1 CLA      0.053700
     35 C2D        72.4904   56.2540   38.0847 cb         1 CLA      0.058900
     36 O2A        80.1552   55.5358   34.6227 o1         1 CLA     -0.437200
     37 O2D        75.9399   53.6575   37.1355 o1         1 CLA     -0.357600
     38 C3         81.8911   53.4418   36.5045 c5         1 CLA      0.031200
     39 C3A        79.0928   58.5002   36.9571 a1         1 CLA      0.166800
     40 C3B        77.7300   61.4784   42.3457 cb         1 CLA      0.035000
     41 C3C        72.2976   58.6448   42.5828 cb         1 CLA     -0.089900
     42 C3D        73.5596   56.0009   37.2507 cb         1 CLA     -0.035900
     43 C4         82.9678   52.3360   36.3377 a3         1 CLA     -0.053300
     44 C4A        78.2298   59.0227   38.1527 ac         1 CLA      0.001800
     45 C4B        76.5812   60.7230   41.8291 cn         1 CLA     -0.020900
     46 C4C        72.8601   58.4229   41.2897 cr         1 CLA     -0.044400
     47 C4D        74.6311   56.8050   37.6391 c6         1 CLA     -0.046000
     48 C5         82.2958   54.5846   37.4647 a2         1 CLA     -0.070400
     49 C6         83.2512   54.1930   38.5888 a2         1 CLA      0.043900
     50 C7         83.5375   55.2118   39.7229 a2         1 CLA     -0.150000
     51 C8         83.9342   56.6780   39.3580 a1         1 CLA      0.064200
     52 C9         85.0931   56.7623   38.2454 a3         1 CLA     -0.259300
     53 C10        84.2249   57.6866   40.5679 a2         1 CLA     -0.071900
     54 C11        83.0566   57.7920   41.5199 a2         1 CLA      0.014500
     55 C12        82.9432   59.1607   42.2459 a2         1 CLA     -0.112100
     56 C13        84.1678   59.4924   43.1851 a1         1 CLA      0.089200
     57 C14        84.4957   58.2983   44.2009 a3         1 CLA     -0.239100
     58 C15        83.9298   60.7950   44.0050 a2         1 CLA     -0.102200
     59 C16        82.7224   60.8193   44.9712 a2         1 CLA      0.023900
     60 C17        82.5832   62.2779   45.6036 a2         1 CLA     -0.105700
     61 C18        83.6958   62.5055   46.6640 a1         1 CLA      0.206800
     62 C19        83.6149   64.0494   47.0600 a3         1 CLA     -0.280100
     63 C20        83.4738   61.7169   48.0102 a3         1 CLA     -0.280100
     64 NC         74.0353   59.1205   41.1817 nx         1 CLA     -0.309200
     65 MG         75.4092   58.8796   39.5814 mg         1 CLA      0.895000
     66 HMD3       71.0947   54.7449   37.4299 dc         1 CLA      0.064300
     67 HMD2       70.7905   55.1735   39.0201 dc         1 CLA      0.064300
     68 HMD1       70.3035   56.1983   37.6727 dc         1 CLA      0.064300
     69 HMC3       72.6359   59.2116   45.2293 dc         1 CLA      0.052100
     70 HMC2       74.2462   59.9959   44.9260 dc         1 CLA      0.052100
     71 HMC1       72.6509   60.9020   44.6212 dc         1 CLA      0.052100
     72 HMB3       80.7925   61.2016   41.7447 dc         1 CLA      0.063600
     73 HMB2       80.4782   62.0089   40.2345 dc         1 CLA      0.063600
     74 HMB1       80.1765   62.8422   41.6796 dc         1 CLA      0.063600
     75 HMA3       81.0656   57.6384   36.6461 dc         1 CLA      0.058300
     76 HMA2       80.9364   58.6938   38.0876 dc         1 CLA      0.058300
     77 HMA1       80.2420   57.1227   38.1018 dc         1 CLA      0.058300
     78 HED3       75.9000   51.6145   36.8129 dc         1 CLA      0.079300
     79 HED2       77.3668   52.2525   37.3946 dc         1 CLA      0.079300
     80 HED1       75.9943   51.9272   38.5487 dc         1 CLA      0.079300
     81 HBC3       70.3943   56.3442   43.8505 dc         1 CLA      0.016300
     82 HBC2       71.3046   55.8188   42.5214 dc         1 CLA      0.016300
     83 HBC1       72.1411   56.1311   44.0271 dc         1 CLA      0.016300
     84 HBB2       78.8124   62.9637   45.2319 da         1 CLA      0.183000
     85 HBB1       79.9774   62.3067   43.8701 da         1 CLA      0.183000
     86 HBA2       78.5634   57.7716   32.8680 dc         1 CLA      0.029400
     87 HBA1       79.8808   58.2775   33.6881 dc         1 CLA      0.029400
     88 HAC2       70.7284   58.3438   44.1729 dc         1 CLA      0.029300
     89 HAC1       70.2499   58.2080   42.4849 dc         1 CLA      0.029300
     90 HAA2       77.1905   57.0367   34.4941 dc         1 CLA      0.028700
     91 HAA1       77.5709   58.7301   34.7071 dc         1 CLA      0.028700
     92 H203       84.4131   61.7019   48.5608 dc         1 CLA      0.065600
     93 H202       82.6530   62.1163   48.5654 dc         1 CLA      0.065600
     94 H201       83.2239   60.6827   47.9159 dc         1 CLA      0.065600
     95 H193       83.5159   64.7471   46.1805 dc         1 CLA      0.065600
     96 H192       82.7937   64.3818   47.6789 dc         1 CLA      0.065600
     97 H191       84.5610   64.1972   47.6305 dc         1 CLA      0.065600
     98 H172       82.7978   62.9999   44.8262 dc         1 CLA      0.027600
     99 H171       81.5666   62.4754   45.9329 dc         1 CLA      0.027600
    100 H162       81.7804   60.7061   44.4808 dc         1 CLA      0.002900
    101 H161       82.8152   59.9299   45.6969 dc         1 CLA      0.002900
    102 H152       84.7702   60.9184   44.6420 dc         1 CLA      0.029100
    103 H151       83.8437   61.5371   43.2309 dc         1 CLA      0.029100
    104 H143       83.6625   57.9729   44.7932 dc         1 CLA      0.063600
    105 H142       84.8280   57.4108   43.5878 dc         1 CLA      0.063600
    106 H141       85.2933   58.5418   44.9282 dc         1 CLA      0.063600
    107 H122       82.7908   59.9998   41.5280 dc         1 CLA      0.032500
    108 H121       82.0548   59.0364   42.9087 dc         1 CLA      0.032500
    109 H112       82.0138   57.7426   41.0559 dc         1 CLA      0.006600
    110 H111       83.2094   56.9198   42.1586 dc         1 CLA      0.006600
    111 H102       85.0853   57.3162   41.1153 dc         1 CLA      0.024100
    112 H101       84.4542   58.6821   40.1336 dc         1 CLA      0.024100
    113 HHD        71.3764   57.1378   40.5560 da         1 CLA      0.174300
    114 HHC        75.4853   61.1116   43.4897 da         1 CLA      0.136800
    115 HHB        79.7757   60.2852   39.1116 da         1 CLA      0.138300
    116 HBD        75.4539   55.9428   34.7941 dc         1 CLA      0.107700
    117 HAB        76.9195   62.5508   44.0845 da         1 CLA      0.155200
    118 H93        86.0698   56.6710   38.7577 dc         1 CLA      0.069500
    119 H92        85.1403   55.9492   37.4823 dc         1 CLA      0.069500
    120 H91        85.0152   57.8002   37.8102 dc         1 CLA      0.069500
    121 H8         83.0641   57.1118   38.8366 dc         1 CLA      0.029300
    122 H72        82.6240   55.2772   40.3889 dc         1 CLA      0.044400
    123 H71        84.3486   54.8272   40.2661 dc         1 CLA      0.044400
    124 H62        82.7875   53.4579   39.2692 dc         1 CLA      0.015600
    125 H61        84.1712   53.8805   38.1637 dc         1 CLA      0.015600
    126 H52        82.7829   55.3426   36.8411 dc         1 CLA      0.033200
    127 H51        81.3950   55.1253   37.8079 dc         1 CLA      0.033200
    128 H43        83.0155   51.7861   37.3232 dc         1 CLA      0.037000
    129 H42        82.5207   51.7770   35.5525 dc         1 CLA      0.037000
    130 H41        83.8208   52.7908   35.8268 dc         1 CLA      0.037000
    131 H3A        79.4159   59.2535   36.3105 dc         1 CLA      0.041100
    132 H2A        78.7539   56.5263   36.5743 dc         1 CLA      0.083100
    133 H2         79.9029   52.8683   36.2924 da         1 CLA      0.180900
    134 H18        84.6700   62.4112   46.2004 dc         1 CLA     -0.003900
    135 H13        85.0623   59.4976   42.6521 dc         1 CLA      0.019700
    136 H12        79.4526   53.5788   34.0517 dc         1 CLA      0.120400
    137 H11        81.1929   53.9925   33.7300 dc         1 CLA      0.120400
    138 C1         67.8384   61.9386   50.6041 Z1         2 LUT      0.509236
    139 C2         67.6195   63.0927   51.5810 Z2         2 LUT     -0.434695
    140 C3         66.2810   63.8556   51.5525 Z3         2 LUT      0.437453
    141 O3         66.5141   65.2423   51.7037 S1         2 LUT     -0.547129
    142 C4         65.5523   63.7249   50.2532 Z4         2 LUT     -0.468603
    143 C5         66.3509   63.2511   49.0631 Z5         2 LUT      0.279246
    144 C6         67.3744   62.3798   49.2047 Z6         2 LUT     -0.305473
    145 C7         68.2103   61.8796   48.1172 Z7         2 LUT      0.069402
    146 C8         68.9326   62.5231   47.1390 Z8         2 LUT     -0.191631
    147 C9         69.4186   61.8490   45.8760 Z9         2 LUT      0.196698
    148 C10        70.0701   62.5912   44.9615 Y1         2 LUT     -0.208611
    149 C11        70.6381   62.3352   43.6962 Y2         2 LUT      0.030784
    150 C12        71.6727   63.1187   43.2662 Y3         2 LUT     -0.220316
    151 C13        72.6853   62.8339   42.2040 Y4         2 LUT      0.215937
    152 C14        73.8186   63.6261   42.0616 Y5         2 LUT     -0.185793
    153 C15        74.8798   63.4388   41.1545 Y6         2 LUT     -0.057835
    154 C16        66.9271   60.8186   51.1230 Y7         2 LUT     -0.405615
    155 C17        69.2687   61.4695   50.8761 Y7         2 LUT     -0.405615
    156 C18        65.9495   63.8980   47.7568 Y9         2 LUT     -0.369639
    157 C19        68.8994   60.4513   45.3992 W1         2 LUT     -0.333362
    158 C20        72.1873   62.1070   41.0401 W2         2 LUT     -0.323439
    159 C21        86.4763   65.0358   35.5679 Z1         2 LUT      0.406104
    160 C22        87.2969   64.5974   34.3828 Z2         2 LUT     -0.404965
    161 C23        87.4645   65.4435   33.1268 Z3         2 LUT      0.391255
    162 O23        88.1190   64.6753   32.0200 S1         2 LUT     -0.528210
    163 C24        86.1813   66.2117   32.8498 W6         2 LUT     -0.258361
    164 C25        85.0820   66.2341   33.6669 Z5         2 LUT      0.133546
    165 C26        85.1145   65.5567   35.0210 W8         2 LUT     -0.147008
    166 C27        84.3032   66.2320   36.1313 Z7         2 LUT      0.023843
    167 C28        83.0929   65.8133   36.5584 Z8         2 LUT     -0.216987
    168 C29        82.3234   66.5023   37.6329 Z9         2 LUT      0.206524
    169 C30        81.2101   65.7744   38.0192 Y1         2 LUT     -0.215556
    170 C31        80.2256   65.9606   39.0763 Y2         2 LUT      0.025142
    171 C32        79.1389   65.1671   39.3850 Y3         2 LUT     -0.212209
    172 C33        78.2295   65.2572   40.4757 Y4         2 LUT      0.240937
    173 C34        77.1905   64.3401   40.5370 Y5         2 LUT     -0.218862
    174 C35        75.9315   64.3358   41.3096 Y6         2 LUT     -0.023547
    175 C36        87.3256   66.2689   36.1093 Y7         2 LUT     -0.393485
    176 C37        86.4210   64.0045   36.6819 Y7         2 LUT     -0.393485
    177 C38        83.8690   67.0003   33.2729 Y9         2 LUT     -0.387526
    178 C39        82.8098   67.8335   38.0919 W1         2 LUT     -0.322618
    179 C40        78.3374   66.3866   41.4763 W2         2 LUT     -0.358472
    180 H403       77.7667   66.2222   42.3550 R7         2 LUT      0.097720
    181 H402       79.3535   66.5437   41.8199 R7         2 LUT      0.097720
    182 H401       77.9343   67.2592   40.9772 R7         2 LUT      0.097720
    183 H393       82.2036   68.3841   38.8288 R4         2 LUT      0.082505
    184 H392       83.6787   67.7360   38.6878 R4         2 LUT      0.082505
    185 H391       83.0252   68.5231   37.3114 R4         2 LUT      0.082505
    186 H383       84.1417   67.4730   32.3115 R1         2 LUT      0.104030
    187 H382       83.0637   66.3333   33.1754 R1         2 LUT      0.104030
    188 H381       83.5122   67.7347   34.0594 R1         2 LUT      0.104030
    189 H373       85.9126   64.2445   37.6186 T4         2 LUT      0.089537
    190 H372       85.9626   63.0492   36.3931 T4         2 LUT      0.089537
    191 H371       87.3867   63.6568   36.9029 T4         2 LUT      0.089537
    192 H363       87.4194   67.0162   35.3209 T4         2 LUT      0.089537
    193 H362       86.9349   66.7747   37.0075 T4         2 LUT      0.089537
    194 H361       88.3842   66.0680   36.4250 T4         2 LUT      0.089537
    195 H222       88.3107   64.3489   34.7257 U2         2 LUT      0.127376
    196 H221       86.8086   63.7052   34.0627 U2         2 LUT      0.127376
    197 H203       72.8969   61.7614   40.2484 R7         2 LUT      0.087068
    198 H202       71.5564   61.2924   41.2524 R7         2 LUT      0.087068
    199 H201       71.5439   62.7603   40.4597 R7         2 LUT      0.087068
    200 H193       68.8716   60.4451   44.3164 R4         2 LUT      0.089716
    201 H192       69.5926   59.6829   45.7132 R4         2 LUT      0.089716
    202 H191       67.9030   60.2309   45.7770 R4         2 LUT      0.089716
    203 H183       64.8785   63.9577   47.7460 R1         2 LUT      0.094572
    204 H182       66.3155   64.9748   47.6078 R1         2 LUT      0.094572
    205 H181       66.1680   63.3015   46.8725 R1         2 LUT      0.094572
    206 H173       69.5495   60.6125   50.2387 T4         2 LUT      0.093752
    207 H172       69.9693   62.3090   50.7107 T4         2 LUT      0.093752
    208 H171       69.3435   61.1220   51.9314 T4         2 LUT      0.093752
    209 H163       67.2761   59.8829   50.7829 T4         2 LUT      0.093752
    210 H162       67.0482   60.6669   52.1852 T4         2 LUT      0.093752
    211 H161       65.9200   61.0436   50.7911 T4         2 LUT      0.093752
    212 HO3        65.8211   65.7674   52.1127 Q1         2 LUT      0.300121
    213 H8         69.0342   63.6057   47.1079 U7         2 LUT      0.080784
    214 H7         68.1973   60.8228   48.1666 U6         2 LUT      0.042190
    215 H42        64.5793   63.1147   50.3282 U5         2 LUT      0.145166
    216 H41        65.0722   64.6913   50.1110 U5         2 LUT      0.145166
    217 H35        75.8641   65.1656   42.0171 T3         2 LUT      0.077919
    218 H34        77.0666   63.4929   39.9136 T2         2 LUT      0.073626
    219 H32        78.9703   64.3477   38.6928 T1         2 LUT      0.092510
    220 H31        80.4114   66.8701   39.7077 U9         2 LUT      0.070048
    221 H30        81.1601   64.7894   37.5307 U8         2 LUT      0.085442
    222 H3         65.6299   63.3844   52.2493 U3         2 LUT     -0.031596
    223 H28        82.8639   64.7775   36.3095 U7         2 LUT      0.084728
    224 H27        84.6203   67.1623   36.5192 U6         2 LUT      0.087291
    225 H26        84.5982   64.6332   34.7402 Q6         2 LUT      0.075325
    226 H24        86.1548   66.7109   31.8514 Q5         2 LUT      0.094482
    227 H23        88.1397   66.3060   33.3872 U3         2 LUT     -0.024869
    228 H22        67.8897   62.9222   52.6345 U2         2 LUT      0.127376
    229 H21        68.3162   63.8883   51.2505 U2         2 LUT      0.127376
    230 H15        74.9054   62.6859   40.4463 T3         2 LUT      0.093200
    231 H14        73.9190   64.4302   42.8107 T2         2 LUT      0.068865
    232 H12        71.9455   63.9867   43.8931 T1         2 LUT      0.095507
    233 H11        70.5398   61.3936   43.1317 U9         2 LUT      0.068930
    234 H10        70.2553   63.6543   45.2706 U8         2 LUT      0.083911
    235 H1         87.4342   64.3769   31.3504 Q1         2 LUT      0.297311
@<TRIPOS>BOND
    1     6     1 1
    2     7     2 1
    3     8     3 1
    4     9     4 1
    5    11     4 1
    6    12     6 1
    7    13     9 1
    8    16     9 1
    9    25     5 1
   10    25    16 1
   11    26    10 1
   12    26    17 1
   13    27    18 1
   14    28    14 1
   15    28    19 1
   16    29    12 1
   17    30    13 1
   18    31    24 1
   19    32     1 1
   20    32    25 1
   21    33    21 1
   22    33    26 1
   23    34    22 1
   24    34    27 1
   25    35    23 1
   26    35    28 1
   27    36    12 1
   28    36    24 1
   29    37    13 1
   30    37    15 1
   31    38    31 1
   32    39    20 1
   33    39    32 1
   34    40     2 1
   35    40    33 1
   36    41     3 1
   37    41    34 1
   38    42     4 1
   39    42    35 1
   40    43    38 1
   41    44     5 1
   42    44    17 1
   43    44    39 1
   44    45    10 1
   45    45    18 1
   46    45    40 1
   47    46    19 1
   48    46    41 1
   49    47    14 1
   50    47    16 1
   51    47    42 1
   52    48    38 1
   53    49    48 1
   54    50    49 1
   55    51    50 1
   56    52    51 1
   57    53    51 1
   58    54    53 1
   59    55    54 1
   60    56    55 1
   61    57    56 1
   62    58    56 1
   63    59    58 1
   64    60    59 1
   65    61    60 1
   66    62    61 1
   67    63    61 1
   68    64    27 1
   69    64    46 1
   70    65     5 1
   71    65    10 1
   72    65    64 1
   73    65    14 1
   74    66    23 1
   75    67    23 1
   76    68    23 1
   77    69    22 1
   78    70    22 1
   79    71    22 1
   80    72    21 1
   81    73    21 1
   82    74    21 1
   83    75    20 1
   84    76    20 1
   85    77    20 1
   86    78    15 1
   87    79    15 1
   88    80    15 1
   89    81     8 1
   90    82     8 1
   91    83     8 1
   92    84     7 1
   93    85     7 1
   94    86     6 1
   95    87     6 1
   96    88     3 1
   97    89     3 1
   98    90     1 1
   99    91     1 1
  100    92    63 1
  101    93    63 1
  102    94    63 1
  103    95    62 1
  104    96    62 1
  105    97    62 1
  106    98    60 1
  107    99    60 1
  108   100    59 1
  109   101    59 1
  110   102    58 1
  111   103    58 1
  112   104    57 1
  113   105    57 1
  114   106    57 1
  115   107    55 1
  116   108    55 1
  117   109    54 1
  118   110    54 1
  119   111    53 1
  120   112    53 1
  121   113    19 1
  122   114    18 1
  123   115    17 1
  124   116     9 1
  125   117     2 1
  126   118    52 1
  127   119    52 1
  128   120    52 1
  129   121    51 1
  130   122    50 1
  131   123    50 1
  132   124    49 1
  133   125    49 1
  134   126    48 1
  135   127    48 1
  136   128    43 1
  137   129    43 1
  138   130    43 1
  139   131    39 1
  140   132    32 1
  141   133    31 1
  142   134    61 1
  143   135    56 1
  144   136    24 1
  145   137    24 1
  146   139   138 1
  147   140   139 1
  148   141   140 1
  149   142   140 1
  150   143   142 1
  151   144   138 1
  152   144   143 1
  153   145   144 1
  154   146   145 1
  155   147   146 1
  156   148   147 1
  157   149   148 1
  158   150   149 1
  159   151   150 1
  160   152   151 1
  161   153   152 1
  162   154   138 1
  163   155   138 1
  164   156   143 1
  165   157   147 1
  166   158   151 1
  167   160   159 1
  168   161   160 1
  169   162   161 1
  170   163   161 1
  171   164   163 1
  172   165   159 1
  173   165   164 1
  174   166   165 1
  175   167   166 1
  176   168   167 1
  177   169   168 1
  178   170   169 1
  179   171   170 1
  180   172   171 1
  181   173   172 1
  182   174   153 1
  183   174   173 1
  184   175   159 1
  185   176   159 1
  186   177   164 1
  187   178   168 1
  188   179   172 1
  189   180   179 1
  190   181   179 1
  191   182   179 1
  192   183   178 1
  193   184   178 1
  194   185   178 1
  195   186   177 1
  196   187   177 1
  197   188   177 1
  198   189   176 1
  199   190   176 1
  200   191   176 1
  201   192   175 1
  202   193   175 1
  203   194   175 1
  204   195   160 1
  205   196   160 1
  206   197   158 1
  207   198   158 1
  208   199   158 1
  209   200   157 1
  210   201   157 1
  211   202   157 1
  212   203   156 1
  213   204   156 1
  214   205   156 1
  215   206   155 1
  216   207   155 1
  217   208   155 1
  218   209   154 1
  219   210   154 1
  220   211   154 1
  221   212   141 1
  222   213   146 1
  223   214   145 1
  224   215   142 1
  225   216   142 1
  226   217   174 1
  227   218   173 1
  228   219   171 1
  229   220   170 1
  230   221   169 1
  231   222   140 1
  232   223   167 1
  233   224   166 1
  234   225   165 1
  235   226   163 1
  236   227   161 1
  237   228   139 1
  238   229   139 1
  239   230   153 1
  240   231   152 1
  241   232   150 1
  242   233   149 1
  243   234   148 1
  244   235   162 1
  245   65    153 1
  246   65    174 1
@<TRIPOS>SUBSTRUCTURE
      1 CLA               1 ****               0 ****  **** 
      2 LUT             138 ****               0 ****  **** 
