@<TRIPOS>MOLECULE
Cpptraj generated mol2 file.
  235   246     2     0     0
SMALL
USER_CHARGES


@<TRIPOS>ATOM
      1 CAA        79.6255   59.2895   34.5616 a2         1 CLA     -0.055900
      2 CAB        78.8879   62.3897   43.7545 c8         1 CLA     -0.148500
      3 CAC        72.1974   58.2667   42.5945 a2         1 CLA     -0.012600
      4 CAD        75.3223   56.5394   35.2069 ck         1 CLA      0.398800
      5 NA         78.2752   59.5070   37.9062 ns         1 CLA     -0.225500
      6 CBA        80.9478   59.3368   33.7888 a2         1 CLA     -0.135000
      7 CBB        79.9903   62.4177   44.5413 c0         1 CLA     -0.395200
      8 CBC        72.3755   56.8550   43.1071 a3         1 CLA     -0.037700
      9 CBD        76.8847   57.1452   35.0490 a1         1 CLA     -0.053900
     10 NB         78.0235   60.7413   40.5772 nm         1 CLA     -0.295700
     11 OBD        74.7675   55.7893   34.3885 o2         1 CLA     -0.494600
     12 CGA        81.5052   58.0197   33.2228 c4         1 CLA      0.827000
     13 CGD        77.9122   56.0844   34.7622 c4         1 CLA      0.655300
     14 ND         75.5445   58.3846   38.2858 nm         1 CLA     -0.291600
     15 CED        78.8936   54.0967   35.8017 a3         1 CLA      0.005400
     16 CHA        77.1044   57.9909   36.3102 cs         1 CLA     -0.123800
     17 CHB        79.9933   60.8735   39.1760 aa         1 CLA     -0.291900
     18 CHC        76.5858   60.6505   42.5436 aa         1 CLA     -0.090400
     19 CHD        73.5984   58.0652   39.7782 aa         1 CLA     -0.052000
     20 CMA        81.6892   58.7193   37.5539 a3         1 CLA     -0.230700
     21 CMB        81.0137   62.7728   41.5478 a3         1 CLA     -0.180800
     22 CMC        74.4733   59.7990   44.5105 a3         1 CLA     -0.134000
     23 CMD        72.5101   56.3092   37.0915 a3         1 CLA     -0.141100
     24 C1         82.3064   55.8769   33.9501 a2         1 CLA      0.023000
     25 C1A        78.2341   58.7786   36.7378 ac         1 CLA     -0.015100
     26 C1B        79.2830   61.1987   40.2924 cr         1 CLA      0.054700
     27 C1C        75.5630   59.8839   42.1883 cn         1 CLA     -0.005600
     28 C1D        74.2731   57.7834   38.5315 ap         1 CLA     -0.047300
     29 O1A        81.4404   57.6479   32.0898 o2         1 CLA     -0.610800
     30 O1D        78.7908   56.1375   33.9225 o2         1 CLA     -0.558200
     31 C2         82.7278   55.2780   35.2141 c8         1 CLA     -0.325100
     32 C2A        79.5649   58.7751   35.9972 a1         1 CLA      0.098600
     33 C2B        79.7535   61.9693   41.4490 cb         1 CLA      0.088500
     34 C2C        74.4304   59.5683   42.9939 cb         1 CLA      0.053700
     35 C2D        73.8124   57.0144   37.3714 cb         1 CLA      0.058900
     36 O2A        81.9960   57.2692   34.2781 o1         1 CLA     -0.437200
     37 O2D        77.8054   55.0500   35.7371 o1         1 CLA     -0.357600
     38 C3         84.0269   54.8534   35.2938 c5         1 CLA      0.031200
     39 C3A        80.4447   59.6133   36.9951 a1         1 CLA      0.166800
     40 C3B        78.7908   61.8595   42.4029 cb         1 CLA      0.035000
     41 C3C        73.5105   58.8283   42.2135 cb         1 CLA     -0.089900
     42 C3D        74.8992   57.0523   36.4977 cb         1 CLA     -0.035900
     43 C4         84.3535   53.4553   34.8342 a3         1 CLA     -0.053300
     44 C4A        79.4824   60.0232   38.1161 ac         1 CLA      0.001800
     45 C4B        77.7147   61.1132   41.8778 cn         1 CLA     -0.020900
     46 C4C        74.1397   58.7122   40.9587 cr         1 CLA     -0.044400
     47 C4D        75.9176   57.8079   37.0618 c6         1 CLA     -0.046000
     48 C5         85.3298   55.6703   35.7628 a2         1 CLA     -0.070400
     49 C6         85.3813   56.1277   37.2710 a2         1 CLA      0.043900
     50 C7         86.6597   56.8495   37.6786 a2         1 CLA     -0.150000
     51 C8         86.7214   57.3969   39.1251 a1         1 CLA      0.064200
     52 C9         85.5527   58.3501   39.3766 a3         1 CLA     -0.259300
     53 C10        88.0809   57.9042   39.4551 a2         1 CLA     -0.071900
     54 C11        88.4282   58.2229   40.9810 a2         1 CLA      0.014500
     55 C12        88.9472   57.0221   41.7299 a2         1 CLA     -0.112100
     56 C13        89.0724   57.2488   43.2584 a1         1 CLA      0.089200
     57 C14        90.0914   56.2259   43.8150 a3         1 CLA     -0.239100
     58 C15        87.7891   57.5824   44.1286 a2         1 CLA     -0.102200
     59 C16        87.8483   57.4943   45.6904 a2         1 CLA      0.023900
     60 C17        86.5420   57.9482   46.4006 a2         1 CLA     -0.105700
     61 C18        86.4048   57.7902   47.9785 a1         1 CLA      0.206800
     62 C19        85.1012   58.4643   48.5309 a3         1 CLA     -0.280100
     63 C20        86.4795   56.2438   48.4021 a3         1 CLA     -0.280100
     64 NC         75.3188   59.4327   40.9551 nx         1 CLA     -0.309200
     65 MG         76.7140   59.6412   39.3814 mg         1 CLA      0.895000
     66 HMD3       72.7878   55.5366   36.3970 dc         1 CLA      0.064300
     67 HMD2       72.2161   55.7530   38.0600 dc         1 CLA      0.064300
     68 HMD1       71.6517   56.9040   36.7846 dc         1 CLA      0.064300
     69 HMC3       74.7678   60.8128   44.8990 dc         1 CLA      0.052100
     70 HMC2       73.3772   59.7259   44.7815 dc         1 CLA      0.052100
     71 HMC1       75.1330   59.0597   44.9425 dc         1 CLA      0.052100
     72 HMB3       81.8706   62.0918   41.6300 dc         1 CLA      0.063600
     73 HMB2       81.1921   63.3049   40.6071 dc         1 CLA      0.063600
     74 HMB1       80.9713   63.5234   42.2944 dc         1 CLA      0.063600
     75 HMA3       82.3766   58.5573   36.7545 dc         1 CLA      0.058300
     76 HMA2       82.1465   59.3224   38.3995 dc         1 CLA      0.058300
     77 HMA1       81.3231   57.8327   37.9841 dc         1 CLA      0.058300
     78 HED3       79.3216   53.8608   34.8303 dc         1 CLA      0.079300
     79 HED2       79.6473   54.3448   36.5532 dc         1 CLA      0.079300
     80 HED1       78.4114   53.2115   36.1225 dc         1 CLA      0.079300
     81 HBC3       72.1584   56.1863   42.3174 dc         1 CLA      0.016300
     82 HBC2       73.3728   56.7423   43.4955 dc         1 CLA      0.016300
     83 HBC1       71.7937   56.6411   44.0145 dc         1 CLA      0.016300
     84 HBB2       79.8127   62.8075   45.5476 da         1 CLA      0.183000
     85 HBB1       80.9757   62.0619   44.2324 da         1 CLA      0.183000
     86 HBA2       80.9461   60.1459   32.9972 dc         1 CLA      0.029400
     87 HBA1       81.6016   59.7332   34.6194 dc         1 CLA      0.029400
     88 HAC2       71.7254   59.0121   43.2410 dc         1 CLA      0.029300
     89 HAC1       71.5677   58.2625   41.7117 dc         1 CLA      0.029300
     90 HAA2       78.7724   58.8591   33.9762 dc         1 CLA      0.028700
     91 HAA1       79.2840   60.3283   34.6618 dc         1 CLA      0.028700
     92 H203       85.8646   55.9122   49.2155 dc         1 CLA      0.065600
     93 H202       86.2768   55.5843   47.5190 dc         1 CLA      0.065600
     94 H201       87.4788   56.1766   48.7057 dc         1 CLA      0.065600
     95 H193       85.0115   59.4450   48.0740 dc         1 CLA      0.065600
     96 H192       84.2951   57.8735   48.1172 dc         1 CLA      0.065600
     97 H191       85.1540   58.5562   49.6097 dc         1 CLA      0.065600
     98 H172       86.3280   58.9498   46.0164 dc         1 CLA      0.027600
     99 H171       85.7711   57.3333   46.0546 dc         1 CLA      0.027600
    100 H162       88.0504   56.4754   45.8909 dc         1 CLA      0.002900
    101 H161       88.7061   58.0105   46.0732 dc         1 CLA      0.002900
    102 H152       87.4234   58.5235   43.8075 dc         1 CLA      0.029100
    103 H151       86.8729   57.0081   43.8528 dc         1 CLA      0.029100
    104 H143       90.2277   56.5877   44.8103 dc         1 CLA      0.063600
    105 H142       89.7224   55.1961   43.7006 dc         1 CLA      0.063600
    106 H141       91.0511   56.2098   43.2221 dc         1 CLA      0.063600
    107 H122       88.2964   56.1699   41.6107 dc         1 CLA      0.032500
    108 H121       89.9567   56.8055   41.4438 dc         1 CLA      0.032500
    109 H112       89.0049   59.0840   41.0923 dc         1 CLA      0.006600
    110 H111       87.5095   58.5752   41.4572 dc         1 CLA      0.006600
    111 H102       88.8024   57.2377   39.0491 dc         1 CLA      0.024100
    112 H101       88.1295   58.9388   39.0253 dc         1 CLA      0.024100
    113 HHD        72.6075   57.7256   39.7601 da         1 CLA      0.174300
    114 HHC        76.6467   60.9786   43.5583 da         1 CLA      0.136800
    115 HHB        81.0539   61.2275   39.1410 da         1 CLA      0.138300
    116 HBD        76.8508   57.8180   34.1740 dc         1 CLA      0.107700
    117 HAB        77.9763   62.8116   44.2026 da         1 CLA      0.155200
    118 H93        84.6580   57.6928   39.2129 dc         1 CLA      0.069500
    119 H92        85.5206   58.6831   40.3585 dc         1 CLA      0.069500
    120 H91        85.5743   59.2591   38.6923 dc         1 CLA      0.069500
    121 H8         86.4896   56.6153   39.8538 dc         1 CLA      0.029300
    122 H72        87.5034   56.1684   37.5293 dc         1 CLA      0.044400
    123 H71        86.7137   57.6808   36.9935 dc         1 CLA      0.044400
    124 H62        84.4877   56.7608   37.3643 dc         1 CLA      0.015600
    125 H61        85.2561   55.2337   37.9336 dc         1 CLA      0.015600
    126 H52        86.2591   55.1680   35.3659 dc         1 CLA      0.033200
    127 H51        85.1836   56.6141   35.2718 dc         1 CLA      0.033200
    128 H43        83.4416   53.0340   34.4774 dc         1 CLA      0.037000
    129 H42        84.9580   53.4168   33.9582 dc         1 CLA      0.037000
    130 H41        84.6501   52.8454   35.6373 dc         1 CLA      0.037000
    131 H3A        80.8875   60.4963   36.6241 dc         1 CLA      0.041100
    132 H2A        79.9257   57.7569   35.9417 dc         1 CLA      0.083100
    133 H2         82.0345   55.1770   36.0638 da         1 CLA      0.180900
    134 H18        87.2339   58.3719   48.4588 dc         1 CLA     -0.003900
    135 H13        89.6186   58.1738   43.2040 dc         1 CLA      0.019700
    136 H12        81.4782   55.3371   33.4816 dc         1 CLA      0.120400
    137 H11        83.1543   55.9534   33.2445 dc         1 CLA      0.120400
    138 C1         68.6895   62.0838   50.1135 Z1         2 LUT      0.509236
    139 C2         68.6437   63.3444   51.0213 Z2         2 LUT     -0.434695
    140 C3         67.4185   64.2107   50.9363 Z3         2 LUT      0.437453
    141 O3         67.9068   65.4815   51.3092 S1         2 LUT     -0.547129
    142 C4         66.8025   64.2140   49.5030 Z4         2 LUT     -0.468603
    143 C5         67.5481   63.5324   48.4096 Z5         2 LUT      0.279246
    144 C6         68.3658   62.4932   48.6491 Z6         2 LUT     -0.305473
    145 C7         69.3630   61.9743   47.7320 Z7         2 LUT      0.069402
    146 C8         70.4315   62.6950   47.1664 Z8         2 LUT     -0.191631
    147 C9         71.0628   62.4196   45.8863 Z9         2 LUT      0.196698
    148 C10        72.1494   63.1750   45.5113 Y1         2 LUT     -0.208611
    149 C11        72.8655   63.0669   44.1929 Y2         2 LUT      0.030784
    150 C12        73.9176   63.8979   43.8129 Y3         2 LUT     -0.220316
    151 C13        74.7744   63.8039   42.6749 Y4         2 LUT      0.215937
    152 C14        75.9447   64.5109   42.6615 Y5         2 LUT     -0.185793
    153 C15        76.9786   64.5576   41.6886 Y6         2 LUT     -0.057835
    154 C16        67.5572   61.1055   50.6840 Y7         2 LUT     -0.405615
    155 C17        69.9425   61.1702   50.2517 Y7         2 LUT     -0.405615
    156 C18        67.4494   64.2928   47.1533 Y9         2 LUT     -0.369639
    157 C19        70.4563   61.3564   44.9963 W1         2 LUT     -0.333362
    158 C20        74.2579   63.2245   41.3927 W2         2 LUT     -0.323439
    159 C21        87.9815   66.2825   35.8750 Z1         2 LUT      0.406104
    160 C22        88.7541   65.6637   34.6019 Z2         2 LUT     -0.404965
    161 C23        89.1586   66.6239   33.4885 Z3         2 LUT      0.391255
    162 O23        89.9063   65.9399   32.5271 S1         2 LUT     -0.528210
    163 C24        88.0382   67.5184   33.1867 W6         2 LUT     -0.258361
    164 C25        86.9997   67.7090   33.9215 Z5         2 LUT      0.133546
    165 C26        86.7091   66.8998   35.1873 W8         2 LUT     -0.147008
    166 C27        85.8316   67.6886   36.2085 Z7         2 LUT      0.023843
    167 C28        84.7527   67.1553   36.7335 Z8         2 LUT     -0.216987
    168 C29        84.0985   67.5712   37.9929 Z9         2 LUT      0.206524
    169 C30        83.0621   66.7850   38.3238 Y1         2 LUT     -0.215556
    170 C31        82.2952   66.7742   39.4700 Y2         2 LUT      0.025142
    171 C32        81.1659   66.0760   39.5926 Y3         2 LUT     -0.212209
    172 C33        80.3025   66.0069   40.7390 Y4         2 LUT      0.240937
    173 C34        79.1008   65.3307   40.7014 Y5         2 LUT     -0.218862
    174 C35        78.1303   65.2594   41.7688 Y6         2 LUT     -0.023547
    175 C36        89.0030   67.3593   36.4047 Y7         2 LUT     -0.393485
    176 C37        87.7103   65.1565   36.9574 Y7         2 LUT     -0.393485
    177 C38        85.8293   68.5861   33.5282 Y9         2 LUT     -0.387526
    178 C39        84.6318   68.7249   38.8593 W1         2 LUT     -0.322618
    179 C40        80.5501   67.0075   41.8348 W2         2 LUT     -0.358472
    180 H403       80.5111   68.0057   41.4975 R7         2 LUT      0.097720
    181 H402       79.9655   66.9855   42.7418 R7         2 LUT      0.097720
    182 H401       81.6290   66.9131   41.9745 R7         2 LUT      0.097720
    183 H393       85.4101   69.4178   38.5869 R4         2 LUT      0.082505
    184 H392       83.8271   69.4244   39.0789 R4         2 LUT      0.082505
    185 H391       84.9498   68.3340   39.8328 R4         2 LUT      0.082505
    186 H383       86.0738   69.1469   32.6322 R1         2 LUT      0.104030
    187 H382       84.8633   68.0981   33.2474 R1         2 LUT      0.104030
    188 H381       85.6350   69.3301   34.3022 R1         2 LUT      0.104030
    189 H373       88.5534   64.7759   37.5426 T4         2 LUT      0.089537
    190 H372       86.9496   65.5332   37.6246 T4         2 LUT      0.089537
    191 H371       87.2850   64.2647   36.4622 T4         2 LUT      0.089537
    192 H363       88.4117   67.8552   37.1934 T4         2 LUT      0.089537
    193 H362       89.9160   66.8173   36.7579 T4         2 LUT      0.089537
    194 H361       89.2359   68.0696   35.6559 T4         2 LUT      0.089537
    195 H222       89.7725   65.2453   34.9307 U2         2 LUT      0.127376
    196 H221       88.2043   64.8099   34.1978 U2         2 LUT      0.127376
    197 H203       74.2222   63.9624   40.5894 R7         2 LUT      0.087068
    198 H202       75.0336   62.4420   41.0447 R7         2 LUT      0.087068
    199 H201       73.2796   62.7261   41.4041 R7         2 LUT      0.087068
    200 H193       70.7715   60.4493   45.4319 R4         2 LUT      0.089716
    201 H192       69.3333   61.2705   45.2168 R4         2 LUT      0.089716
    202 H191       70.5805   61.3152   43.9157 R4         2 LUT      0.089716
    203 H183       67.9828   65.2287   47.3520 R1         2 LUT      0.094572
    204 H182       67.9521   63.9255   46.2054 R1         2 LUT      0.094572
    205 H181       66.3839   64.5656   46.8727 R1         2 LUT      0.094572
    206 H173       70.8245   61.6048   49.7029 T4         2 LUT      0.093752
    207 H172       70.2179   61.1426   51.2884 T4         2 LUT      0.093752
    208 H171       69.8315   60.1279   49.8542 T4         2 LUT      0.093752
    209 H163       67.5483   60.2615   49.9517 T4         2 LUT      0.093752
    210 H162       67.8198   60.7511   51.6566 T4         2 LUT      0.093752
    211 H161       66.5567   61.5071   50.7080 T4         2 LUT      0.093752
    212 HO3        67.1778   66.0354   51.6940 Q1         2 LUT      0.300121
    213 H8         70.5909   63.6502   47.6191 U7         2 LUT      0.080784
    214 H7         68.9998   61.0181   47.2794 U6         2 LUT      0.042190
    215 H42        65.7657   63.8194   49.6235 U5         2 LUT      0.145166
    216 H41        66.4889   65.2019   49.2301 U5         2 LUT      0.145166
    217 H35        78.1915   65.9554   42.6794 T3         2 LUT      0.077919
    218 H34        78.9152   64.7203   39.8057 T2         2 LUT      0.073626
    219 H32        80.7205   65.4450   38.8187 T1         2 LUT      0.092510
    220 H31        82.7777   67.3097   40.3043 U9         2 LUT      0.070048
    221 H30        82.7588   66.0146   37.6505 U8         2 LUT      0.085442
    222 H3         66.7196   63.7316   51.7090 U3         2 LUT     -0.031596
    223 H28        84.5355   66.2204   36.3141 U7         2 LUT      0.084728
    224 H27        86.3053   68.5122   36.7019 U6         2 LUT      0.087291
    225 H26        86.0967   66.0949   34.6403 Q6         2 LUT      0.075325
    226 H24        88.2127   68.0989   32.2682 Q5         2 LUT      0.094482
    227 H23        89.9542   67.2104   33.9361 U3         2 LUT     -0.024869
    228 H22        68.8401   63.2031   52.1084 U2         2 LUT      0.127376
    229 H21        69.4935   63.9925   50.6773 U2         2 LUT      0.127376
    230 H15        76.8910   63.8391   40.9012 T3         2 LUT      0.093200
    231 H14        76.2677   65.0878   43.5159 T2         2 LUT      0.068865
    232 H12        74.1998   64.6459   44.5782 T1         2 LUT      0.095507
    233 H11        72.6462   62.2363   43.5603 U9         2 LUT      0.068930
    234 H10        72.5409   63.9085   46.2708 U8         2 LUT      0.083911
    235 H1         89.3550   65.6499   31.7417 Q1         2 LUT      0.297311
@<TRIPOS>BOND
    1     6     1 1
    2     7     2 1
    3     8     3 1
    4     9     4 1
    5    11     4 1
    6    12     6 1
    7    13     9 1
    8    16     9 1
    9    25     5 1
   10    25    16 1
   11    26    10 1
   12    26    17 1
   13    27    18 1
   14    28    14 1
   15    28    19 1
   16    29    12 1
   17    30    13 1
   18    31    24 1
   19    32     1 1
   20    32    25 1
   21    33    21 1
   22    33    26 1
   23    34    22 1
   24    34    27 1
   25    35    23 1
   26    35    28 1
   27    36    12 1
   28    36    24 1
   29    37    13 1
   30    37    15 1
   31    38    31 1
   32    39    20 1
   33    39    32 1
   34    40     2 1
   35    40    33 1
   36    41     3 1
   37    41    34 1
   38    42     4 1
   39    42    35 1
   40    43    38 1
   41    44     5 1
   42    44    17 1
   43    44    39 1
   44    45    10 1
   45    45    18 1
   46    45    40 1
   47    46    19 1
   48    46    41 1
   49    47    14 1
   50    47    16 1
   51    47    42 1
   52    48    38 1
   53    49    48 1
   54    50    49 1
   55    51    50 1
   56    52    51 1
   57    53    51 1
   58    54    53 1
   59    55    54 1
   60    56    55 1
   61    57    56 1
   62    58    56 1
   63    59    58 1
   64    60    59 1
   65    61    60 1
   66    62    61 1
   67    63    61 1
   68    64    27 1
   69    64    46 1
   70    65     5 1
   71    65    10 1
   72    65    64 1
   73    65    14 1
   74    66    23 1
   75    67    23 1
   76    68    23 1
   77    69    22 1
   78    70    22 1
   79    71    22 1
   80    72    21 1
   81    73    21 1
   82    74    21 1
   83    75    20 1
   84    76    20 1
   85    77    20 1
   86    78    15 1
   87    79    15 1
   88    80    15 1
   89    81     8 1
   90    82     8 1
   91    83     8 1
   92    84     7 1
   93    85     7 1
   94    86     6 1
   95    87     6 1
   96    88     3 1
   97    89     3 1
   98    90     1 1
   99    91     1 1
  100    92    63 1
  101    93    63 1
  102    94    63 1
  103    95    62 1
  104    96    62 1
  105    97    62 1
  106    98    60 1
  107    99    60 1
  108   100    59 1
  109   101    59 1
  110   102    58 1
  111   103    58 1
  112   104    57 1
  113   105    57 1
  114   106    57 1
  115   107    55 1
  116   108    55 1
  117   109    54 1
  118   110    54 1
  119   111    53 1
  120   112    53 1
  121   113    19 1
  122   114    18 1
  123   115    17 1
  124   116     9 1
  125   117     2 1
  126   118    52 1
  127   119    52 1
  128   120    52 1
  129   121    51 1
  130   122    50 1
  131   123    50 1
  132   124    49 1
  133   125    49 1
  134   126    48 1
  135   127    48 1
  136   128    43 1
  137   129    43 1
  138   130    43 1
  139   131    39 1
  140   132    32 1
  141   133    31 1
  142   134    61 1
  143   135    56 1
  144   136    24 1
  145   137    24 1
  146   139   138 1
  147   140   139 1
  148   141   140 1
  149   142   140 1
  150   143   142 1
  151   144   138 1
  152   144   143 1
  153   145   144 1
  154   146   145 1
  155   147   146 1
  156   148   147 1
  157   149   148 1
  158   150   149 1
  159   151   150 1
  160   152   151 1
  161   153   152 1
  162   154   138 1
  163   155   138 1
  164   156   143 1
  165   157   147 1
  166   158   151 1
  167   160   159 1
  168   161   160 1
  169   162   161 1
  170   163   161 1
  171   164   163 1
  172   165   159 1
  173   165   164 1
  174   166   165 1
  175   167   166 1
  176   168   167 1
  177   169   168 1
  178   170   169 1
  179   171   170 1
  180   172   171 1
  181   173   172 1
  182   174   153 1
  183   174   173 1
  184   175   159 1
  185   176   159 1
  186   177   164 1
  187   178   168 1
  188   179   172 1
  189   180   179 1
  190   181   179 1
  191   182   179 1
  192   183   178 1
  193   184   178 1
  194   185   178 1
  195   186   177 1
  196   187   177 1
  197   188   177 1
  198   189   176 1
  199   190   176 1
  200   191   176 1
  201   192   175 1
  202   193   175 1
  203   194   175 1
  204   195   160 1
  205   196   160 1
  206   197   158 1
  207   198   158 1
  208   199   158 1
  209   200   157 1
  210   201   157 1
  211   202   157 1
  212   203   156 1
  213   204   156 1
  214   205   156 1
  215   206   155 1
  216   207   155 1
  217   208   155 1
  218   209   154 1
  219   210   154 1
  220   211   154 1
  221   212   141 1
  222   213   146 1
  223   214   145 1
  224   215   142 1
  225   216   142 1
  226   217   174 1
  227   218   173 1
  228   219   171 1
  229   220   170 1
  230   221   169 1
  231   222   140 1
  232   223   167 1
  233   224   166 1
  234   225   165 1
  235   226   163 1
  236   227   161 1
  237   228   139 1
  238   229   139 1
  239   230   153 1
  240   231   152 1
  241   232   150 1
  242   233   149 1
  243   234   148 1
  244   235   162 1
  245   65    153 1
  246   65    174 1
@<TRIPOS>SUBSTRUCTURE
      1 CLA               1 ****               0 ****  **** 
      2 LUT             138 ****               0 ****  **** 
