@<TRIPOS>MOLECULE
Cpptraj generated mol2 file.
  235   246     2     0     0
SMALL
USER_CHARGES


@<TRIPOS>ATOM
      1 CAA        77.2709   58.8511   35.3424 a2         1 CLA     -0.055900
      2 CAB        76.7538   62.8382   44.2161 c8         1 CLA     -0.148500
      3 CAC        70.3651   57.9013   43.6413 a2         1 CLA     -0.012600
      4 CAD        73.3910   55.8124   36.3229 ck         1 CLA      0.398800
      5 NA         76.2259   59.0368   38.7169 ns         1 CLA     -0.225500
      6 CBA        78.5764   58.8608   34.4181 a2         1 CLA     -0.135000
      7 CBB        76.7365   62.1369   45.3858 c0         1 CLA     -0.395200
      8 CBC        70.6587   56.4586   43.7064 a3         1 CLA     -0.037700
      9 CBD        74.9264   56.3872   36.1578 a1         1 CLA     -0.053900
     10 NB         75.9019   60.5722   41.2828 nm         1 CLA     -0.295700
     11 OBD        72.7941   55.0151   35.6417 o2         1 CLA     -0.494600
     12 CGA        79.1049   57.5278   33.9266 c4         1 CLA      0.827000
     13 CGD        75.8188   55.1761   36.0969 c4         1 CLA      0.655300
     14 ND         73.4497   58.0407   39.0705 nm         1 CLA     -0.291600
     15 CED        76.2113   53.0356   37.0273 a3         1 CLA      0.005400
     16 CHA        75.1217   57.4101   37.2968 cs         1 CLA     -0.123800
     17 CHB        77.8618   60.6063   39.7856 aa         1 CLA     -0.291900
     18 CHC        74.4112   60.8949   43.1952 aa         1 CLA     -0.090400
     19 CHD        71.5798   57.7453   40.6462 aa         1 CLA     -0.052000
     20 CMA        79.7805   58.7161   38.2469 a3         1 CLA     -0.230700
     21 CMB        79.0411   62.6016   41.9227 a3         1 CLA     -0.180800
     22 CMC        72.0789   60.1626   45.0266 a3         1 CLA     -0.134000
     23 CMD        70.6211   55.6721   38.4258 a3         1 CLA     -0.141100
     24 C1         80.1865   55.5754   34.6598 a2         1 CLA      0.023000
     25 C1A        76.2199   58.1645   37.6188 ac         1 CLA     -0.015100
     26 C1B        77.1313   61.0681   40.8959 cr         1 CLA      0.054700
     27 C1C        73.4055   59.9790   42.8484 cn         1 CLA     -0.005600
     28 C1D        72.2234   57.4351   39.3942 ap         1 CLA     -0.047300
     29 O1A        78.9967   57.0414   32.7732 o2         1 CLA     -0.610800
     30 O1D        76.8160   55.1021   35.3409 o2         1 CLA     -0.558200
     31 C2         80.5552   54.9951   35.9839 c8         1 CLA     -0.325100
     32 C2A        77.5399   58.2411   36.8042 a1         1 CLA      0.098600
     33 C2B        77.6767   61.9481   41.9137 cb         1 CLA      0.088500
     34 C2C        72.2846   59.6171   43.7537 cb         1 CLA      0.053700
     35 C2D        71.8745   56.4765   38.4160 cb         1 CLA      0.058900
     36 O2A        79.6021   56.8245   34.9933 o1         1 CLA     -0.437200
     37 O2D        75.5082   54.2764   37.1507 o1         1 CLA     -0.357600
     38 C3         81.7919   54.6088   36.4069 c5         1 CLA      0.031200
     39 C3A        78.3891   59.1936   37.7400 a1         1 CLA      0.166800
     40 C3B        76.6806   62.0105   42.9342 cb         1 CLA      0.035000
     41 C3C        71.5709   58.6461   43.0585 cb         1 CLA     -0.089900
     42 C3D        72.9562   56.4585   37.4968 cb         1 CLA     -0.035900
     43 C4         82.3834   53.2317   36.1800 a3         1 CLA     -0.053300
     44 C4A        77.4252   59.7070   38.7721 ac         1 CLA      0.001800
     45 C4B        75.6127   61.1321   42.5029 cn         1 CLA     -0.020900
     46 C4C        72.1223   58.5831   41.6993 cr         1 CLA     -0.044400
     47 C4D        73.9115   57.4247   37.9500 c6         1 CLA     -0.046000
     48 C5         82.5106   55.8106   37.1148 a2         1 CLA     -0.070400
     49 C6         83.4986   55.3890   38.2492 a2         1 CLA      0.043900
     50 C7         83.4801   56.3845   39.4625 a2         1 CLA     -0.150000
     51 C8         83.7141   57.9145   39.2030 a1         1 CLA      0.064200
     52 C9         85.0616   58.2736   38.5057 a3         1 CLA     -0.259300
     53 C10        83.6327   58.7296   40.4910 a2         1 CLA     -0.071900
     54 C11        82.3430   58.6744   41.3124 a2         1 CLA      0.014500
     55 C12        82.3941   59.8781   42.2714 a2         1 CLA     -0.112100
     56 C13        83.6098   59.9902   43.2778 a1         1 CLA      0.089200
     57 C14        83.8257   58.6893   44.0571 a3         1 CLA     -0.239100
     58 C15        83.3919   61.1356   44.2979 a2         1 CLA     -0.102200
     59 C16        84.3696   61.4550   45.4507 a2         1 CLA      0.023900
     60 C17        84.1623   62.8731   46.0596 a2         1 CLA     -0.105700
     61 C18        82.8247   63.1337   46.8673 a1         1 CLA      0.206800
     62 C19        82.2559   62.0107   47.7167 a3         1 CLA     -0.280100
     63 C20        82.8282   64.6238   47.5336 a3         1 CLA     -0.280100
     64 NC         73.2203   59.3778   41.6303 nx         1 CLA     -0.309200
     65 MG         74.6343   59.3824   40.0841 mg         1 CLA      0.895000
     66 HMD3       69.7671   56.1095   37.9210 dc         1 CLA      0.064300
     67 HMD2       70.7676   54.8112   37.8492 dc         1 CLA      0.064300
     68 HMD1       70.3269   55.3681   39.3954 dc         1 CLA      0.064300
     69 HMC3       71.2654   59.7264   45.5851 dc         1 CLA      0.052100
     70 HMC2       73.0024   60.0397   45.6179 dc         1 CLA      0.052100
     71 HMC1       71.9043   61.2245   44.9747 dc         1 CLA      0.052100
     72 HMB3       79.2360   63.2487   42.7392 dc         1 CLA      0.063600
     73 HMB2       79.8165   61.9528   41.8083 dc         1 CLA      0.063600
     74 HMB1       79.0620   63.2564   41.0593 dc         1 CLA      0.063600
     75 HMA3       79.6827   57.9991   39.0467 dc         1 CLA      0.058300
     76 HMA2       80.3739   58.2922   37.4013 dc         1 CLA      0.058300
     77 HMA1       80.2220   59.6404   38.7458 dc         1 CLA      0.058300
     78 HED3       75.9010   52.5406   37.9246 dc         1 CLA      0.079300
     79 HED2       75.8837   52.5089   36.1688 dc         1 CLA      0.079300
     80 HED1       77.2190   53.2460   36.9422 dc         1 CLA      0.079300
     81 HBC3       71.2355   56.2263   44.5421 dc         1 CLA      0.016300
     82 HBC2       69.7079   55.9311   43.8419 dc         1 CLA      0.016300
     83 HBC1       71.1713   56.0751   42.7792 dc         1 CLA      0.016300
     84 HBB2       76.8536   62.6605   46.3613 da         1 CLA      0.183000
     85 HBB1       76.4974   61.0648   45.3892 da         1 CLA      0.183000
     86 HBA2       78.3390   59.3715   33.5113 dc         1 CLA      0.029400
     87 HBA1       79.4208   59.2948   35.0031 dc         1 CLA      0.029400
     88 HAC2       70.0880   58.2922   44.6423 dc         1 CLA      0.029300
     89 HAC1       69.4482   58.1353   43.0956 dc         1 CLA      0.029300
     90 HAA2       76.5114   58.3309   34.8617 dc         1 CLA      0.028700
     91 HAA1       76.9579   59.9103   35.5082 dc         1 CLA      0.028700
     92 H203       83.1015   65.4378   46.8805 dc         1 CLA      0.065600
     93 H202       81.8871   64.8891   48.0924 dc         1 CLA      0.065600
     94 H201       83.6474   64.5286   48.2591 dc         1 CLA      0.065600
     95 H193       81.2479   62.3288   48.1533 dc         1 CLA      0.065600
     96 H192       82.0376   61.0643   47.2401 dc         1 CLA      0.065600
     97 H191       82.8981   61.7501   48.5581 dc         1 CLA      0.065600
     98 H172       84.9020   63.1112   46.8128 dc         1 CLA      0.027600
     99 H171       84.1874   63.6515   45.2511 dc         1 CLA      0.027600
    100 H162       84.1783   60.6449   46.1523 dc         1 CLA      0.002900
    101 H161       85.4229   61.3962   45.0748 dc         1 CLA      0.002900
    102 H152       83.3470   62.0122   43.6647 dc         1 CLA      0.029100
    103 H151       82.3851   61.1959   44.7099 dc         1 CLA      0.029100
    104 H143       83.9877   57.8286   43.4501 dc         1 CLA      0.063600
    105 H142       84.7442   58.9500   44.5478 dc         1 CLA      0.063600
    106 H141       83.1174   58.4918   44.8035 dc         1 CLA      0.063600
    107 H122       82.3680   60.8387   41.6148 dc         1 CLA      0.032500
    108 H121       81.5382   59.7490   42.9236 dc         1 CLA      0.032500
    109 H112       81.5794   58.8389   40.5822 dc         1 CLA      0.006600
    110 H111       82.3238   57.7590   41.9093 dc         1 CLA      0.006600
    111 H102       84.5416   58.3876   41.0496 dc         1 CLA      0.024100
    112 H101       83.7999   59.7821   40.2149 dc         1 CLA      0.024100
    113 HHD        70.6774   57.2015   40.8161 da         1 CLA      0.174300
    114 HHC        74.3303   61.3870   44.1504 da         1 CLA      0.136800
    115 HHB        78.8851   60.8872   39.9085 da         1 CLA      0.138300
    116 HBD        74.9214   56.9418   35.2364 dc         1 CLA      0.107700
    117 HAB        76.9520   63.9067   44.1844 da         1 CLA      0.155200
    118 H93        85.2439   59.3330   38.3626 dc         1 CLA      0.069500
    119 H92        85.9152   57.9480   39.0097 dc         1 CLA      0.069500
    120 H91        85.0312   57.8133   37.4887 dc         1 CLA      0.069500
    121 H8         82.8046   58.2637   38.7068 dc         1 CLA      0.029300
    122 H72        82.4682   56.1428   39.8140 dc         1 CLA      0.044400
    123 H71        84.1993   56.0067   40.2251 dc         1 CLA      0.044400
    124 H62        83.2344   54.4109   38.6418 dc         1 CLA      0.015600
    125 H61        84.5313   55.2918   37.9250 dc         1 CLA      0.015600
    126 H52        83.0828   56.3685   36.3132 dc         1 CLA      0.033200
    127 H51        81.8669   56.5722   37.4658 dc         1 CLA      0.033200
    128 H43        81.9506   52.7308   35.3935 dc         1 CLA      0.037000
    129 H42        83.4197   53.4576   35.9969 dc         1 CLA      0.037000
    130 H41        82.3964   52.6647   37.0638 dc         1 CLA      0.037000
    131 H3A        78.6215   60.0794   37.1534 dc         1 CLA      0.041100
    132 H2A        78.0384   57.3330   36.6426 dc         1 CLA      0.083100
    133 H2         79.6894   54.7313   36.5520 da         1 CLA      0.180900
    134 H18        82.0048   63.0889   46.0715 dc         1 CLA     -0.003900
    135 H13        84.5740   60.2763   42.7578 dc         1 CLA      0.019700
    136 H12        79.5440   54.8559   34.1232 dc         1 CLA      0.120400
    137 H11        81.0957   55.7962   33.9987 dc         1 CLA      0.120400
    138 C1         66.6026   61.6338   50.6048 Z1         2 LUT      0.509236
    139 C2         66.6022   62.9749   51.3806 Z2         2 LUT     -0.434695
    140 C3         65.2733   63.7158   51.4633 Z3         2 LUT      0.437453
    141 O3         65.5503   64.9846   52.0391 S1         2 LUT     -0.547129
    142 C4         64.7377   63.8689   50.0544 Z4         2 LUT     -0.468603
    143 C5         65.2637   62.9687   48.8909 Z5         2 LUT      0.279246
    144 C6         66.1806   61.9474   49.1352 Z6         2 LUT     -0.305473
    145 C7         67.0579   61.5041   48.0302 Z7         2 LUT      0.069402
    146 C8         68.1607   62.1855   47.5548 Z8         2 LUT     -0.191631
    147 C9         68.5918   62.1318   46.2208 Z9         2 LUT      0.196698
    148 C10        69.5468   63.1053   45.6968 Y1         2 LUT     -0.208611
    149 C11        70.2897   63.0893   44.4810 Y2         2 LUT      0.030784
    150 C12        71.1974   64.0251   43.9914 Y3         2 LUT     -0.220316
    151 C13        72.0154   63.7926   42.8504 Y4         2 LUT      0.215937
    152 C14        73.1138   64.5581   42.7238 Y5         2 LUT     -0.185793
    153 C15        74.2624   64.3980   41.7817 Y6         2 LUT     -0.057835
    154 C16        65.7095   60.7380   51.4862 Y7         2 LUT     -0.405615
    155 C17        68.0052   61.1027   50.9133 Y7         2 LUT     -0.405615
    156 C18        65.1424   63.7471   47.6515 Y9         2 LUT     -0.369639
    157 C19        68.2637   60.8041   45.4825 W1         2 LUT     -0.333362
    158 C20        71.4327   63.1006   41.6503 W2         2 LUT     -0.323439
    159 C21        85.8047   65.7665   36.2757 Z1         2 LUT      0.406104
    160 C22        86.6227   65.3118   35.0190 Z2         2 LUT     -0.404965
    161 C23        86.8177   66.2861   33.9203 Z3         2 LUT      0.391255
    162 O23        87.6258   65.6863   32.7805 S1         2 LUT     -0.528210
    163 C24        85.4949   66.9859   33.6786 W6         2 LUT     -0.258361
    164 C25        84.3738   66.9642   34.4723 Z5         2 LUT      0.133546
    165 C26        84.3356   66.2831   35.8498 W8         2 LUT     -0.147008
    166 C27        83.6465   67.0237   36.9386 Z7         2 LUT      0.023843
    167 C28        82.5266   66.5035   37.4281 Z8         2 LUT     -0.216987
    168 C29        81.7119   67.0845   38.4336 Z9         2 LUT      0.206524
    169 C30        80.6426   66.3036   38.7907 Y1         2 LUT     -0.215556
    170 C31        79.7620   66.4040   39.9282 Y2         2 LUT      0.025142
    171 C32        78.6692   65.6738   40.1960 Y3         2 LUT     -0.212209
    172 C33        77.7739   65.8205   41.2970 Y4         2 LUT      0.240937
    173 C34        76.5321   65.1242   41.2118 Y5         2 LUT     -0.218862
    174 C35        75.3838   65.1335   42.0007 Y6         2 LUT     -0.023547
    175 C36        86.7882   66.8042   37.0886 Y7         2 LUT     -0.393485
    176 C37        85.7161   64.5198   37.2301 Y7         2 LUT     -0.393485
    177 C38        83.1666   67.6592   34.0188 Y9         2 LUT     -0.387526
    178 C39        82.3140   68.2585   39.2387 W1         2 LUT     -0.322618
    179 C40        77.9858   66.8273   42.3460 W2         2 LUT     -0.358472
    180 H403       77.7172   67.8484   42.0504 R7         2 LUT      0.097720
    181 H402       77.3994   66.5675   43.1792 R7         2 LUT      0.097720
    182 H401       78.9302   66.8095   42.7304 R7         2 LUT      0.097720
    183 H393       81.5251   68.6990   39.8354 R4         2 LUT      0.082505
    184 H392       83.1975   68.0167   39.7811 R4         2 LUT      0.082505
    185 H391       82.7097   69.0895   38.7001 R4         2 LUT      0.082505
    186 H383       82.2718   67.6312   34.6879 R1         2 LUT      0.104030
    187 H382       83.3848   68.6943   33.6779 R1         2 LUT      0.104030
    188 H381       82.8588   67.1629   33.1178 R1         2 LUT      0.104030
    189 H373       86.6892   64.0936   37.4306 T4         2 LUT      0.089537
    190 H372       85.2185   64.7830   38.1294 T4         2 LUT      0.089537
    191 H371       85.1350   63.6666   36.8001 T4         2 LUT      0.089537
    192 H363       87.8475   66.4737   37.1076 T4         2 LUT      0.089537
    193 H362       86.9484   67.7509   36.6077 T4         2 LUT      0.089537
    194 H361       86.4023   66.9662   38.0946 T4         2 LUT      0.089537
    195 H222       87.5871   65.0304   35.2965 U2         2 LUT      0.127376
    196 H221       86.1417   64.3762   34.5000 U2         2 LUT      0.127376
    197 H203       72.0653   63.1870   40.7894 R7         2 LUT      0.087068
    198 H202       71.3741   62.0246   41.7511 R7         2 LUT      0.087068
    199 H201       70.5323   63.5185   41.1606 R7         2 LUT      0.087068
    200 H193       69.1125   60.5935   44.8510 R4         2 LUT      0.089716
    201 H192       68.1361   60.0117   46.1551 R4         2 LUT      0.089716
    202 H191       67.3291   60.9560   44.8386 R4         2 LUT      0.089716
    203 H183       65.7974   64.5539   47.6669 R1         2 LUT      0.094572
    204 H182       65.5214   63.1354   46.8128 R1         2 LUT      0.094572
    205 H181       64.1429   64.1000   47.4905 R1         2 LUT      0.094572
    206 H173       68.2579   60.9892   51.9576 T4         2 LUT      0.093752
    207 H172       68.1383   60.1069   50.4431 T4         2 LUT      0.093752
    208 H171       68.7412   61.7056   50.4351 T4         2 LUT      0.093752
    209 H163       65.8100   59.6763   51.1814 T4         2 LUT      0.093752
    210 H162       65.9562   60.6836   52.5617 T4         2 LUT      0.093752
    211 H161       64.6440   60.9483   51.4184 T4         2 LUT      0.093752
    212 HO3        64.8431   65.4408   52.4562 Q1         2 LUT      0.300121
    213 H8         68.4844   63.0701   48.0913 U7         2 LUT      0.080784
    214 H7         66.5488   60.8989   47.2788 U6         2 LUT      0.042190
    215 H42        63.6422   63.6582   50.0505 U5         2 LUT      0.145166
    216 H41        64.7503   64.8958   49.7617 U5         2 LUT      0.145166
    217 H35        75.3772   65.7664   42.9287 T3         2 LUT      0.077919
    218 H34        76.4638   64.4841   40.3474 T2         2 LUT      0.073626
    219 H32        78.3549   64.8685   39.5030 T1         2 LUT      0.092510
    220 H31        80.0324   67.1335   40.6549 U9         2 LUT      0.070048
    221 H30        80.3554   65.4929   38.1079 U8         2 LUT      0.085442
    222 H3         64.5461   63.0895   52.0748 U3         2 LUT     -0.031596
    223 H28        82.2381   65.4883   37.1106 U7         2 LUT      0.084728
    224 H27        83.9349   68.0044   37.2077 U6         2 LUT      0.087291
    225 H26        83.8318   65.3897   35.5854 Q6         2 LUT      0.075325
    226 H24        85.3604   67.5012   32.7816 Q5         2 LUT      0.094482
    227 H23        87.5048   67.0021   34.2964 U3         2 LUT     -0.024869
    228 H22        66.9812   62.7573   52.4026 U2         2 LUT      0.127376
    229 H21        67.3837   63.6116   50.9808 U2         2 LUT      0.127376
    230 H15        74.1623   63.7351   40.9360 T3         2 LUT      0.093200
    231 H14        73.2177   65.3208   43.4804 T2         2 LUT      0.068865
    232 H12        71.3670   64.8032   44.7051 T1         2 LUT      0.095507
    233 H11        70.1785   62.2330   43.7733 U9         2 LUT      0.068930
    234 H10        69.7948   63.9595   46.3405 U8         2 LUT      0.083911
    235 H1         87.0979   65.0131   32.2993 Q1         2 LUT      0.297311
@<TRIPOS>BOND
    1     6     1 1
    2     7     2 1
    3     8     3 1
    4     9     4 1
    5    11     4 1
    6    12     6 1
    7    13     9 1
    8    16     9 1
    9    25     5 1
   10    25    16 1
   11    26    10 1
   12    26    17 1
   13    27    18 1
   14    28    14 1
   15    28    19 1
   16    29    12 1
   17    30    13 1
   18    31    24 1
   19    32     1 1
   20    32    25 1
   21    33    21 1
   22    33    26 1
   23    34    22 1
   24    34    27 1
   25    35    23 1
   26    35    28 1
   27    36    12 1
   28    36    24 1
   29    37    13 1
   30    37    15 1
   31    38    31 1
   32    39    20 1
   33    39    32 1
   34    40     2 1
   35    40    33 1
   36    41     3 1
   37    41    34 1
   38    42     4 1
   39    42    35 1
   40    43    38 1
   41    44     5 1
   42    44    17 1
   43    44    39 1
   44    45    10 1
   45    45    18 1
   46    45    40 1
   47    46    19 1
   48    46    41 1
   49    47    14 1
   50    47    16 1
   51    47    42 1
   52    48    38 1
   53    49    48 1
   54    50    49 1
   55    51    50 1
   56    52    51 1
   57    53    51 1
   58    54    53 1
   59    55    54 1
   60    56    55 1
   61    57    56 1
   62    58    56 1
   63    59    58 1
   64    60    59 1
   65    61    60 1
   66    62    61 1
   67    63    61 1
   68    64    27 1
   69    64    46 1
   70    65     5 1
   71    65    10 1
   72    65    64 1
   73    65    14 1
   74    66    23 1
   75    67    23 1
   76    68    23 1
   77    69    22 1
   78    70    22 1
   79    71    22 1
   80    72    21 1
   81    73    21 1
   82    74    21 1
   83    75    20 1
   84    76    20 1
   85    77    20 1
   86    78    15 1
   87    79    15 1
   88    80    15 1
   89    81     8 1
   90    82     8 1
   91    83     8 1
   92    84     7 1
   93    85     7 1
   94    86     6 1
   95    87     6 1
   96    88     3 1
   97    89     3 1
   98    90     1 1
   99    91     1 1
  100    92    63 1
  101    93    63 1
  102    94    63 1
  103    95    62 1
  104    96    62 1
  105    97    62 1
  106    98    60 1
  107    99    60 1
  108   100    59 1
  109   101    59 1
  110   102    58 1
  111   103    58 1
  112   104    57 1
  113   105    57 1
  114   106    57 1
  115   107    55 1
  116   108    55 1
  117   109    54 1
  118   110    54 1
  119   111    53 1
  120   112    53 1
  121   113    19 1
  122   114    18 1
  123   115    17 1
  124   116     9 1
  125   117     2 1
  126   118    52 1
  127   119    52 1
  128   120    52 1
  129   121    51 1
  130   122    50 1
  131   123    50 1
  132   124    49 1
  133   125    49 1
  134   126    48 1
  135   127    48 1
  136   128    43 1
  137   129    43 1
  138   130    43 1
  139   131    39 1
  140   132    32 1
  141   133    31 1
  142   134    61 1
  143   135    56 1
  144   136    24 1
  145   137    24 1
  146   139   138 1
  147   140   139 1
  148   141   140 1
  149   142   140 1
  150   143   142 1
  151   144   138 1
  152   144   143 1
  153   145   144 1
  154   146   145 1
  155   147   146 1
  156   148   147 1
  157   149   148 1
  158   150   149 1
  159   151   150 1
  160   152   151 1
  161   153   152 1
  162   154   138 1
  163   155   138 1
  164   156   143 1
  165   157   147 1
  166   158   151 1
  167   160   159 1
  168   161   160 1
  169   162   161 1
  170   163   161 1
  171   164   163 1
  172   165   159 1
  173   165   164 1
  174   166   165 1
  175   167   166 1
  176   168   167 1
  177   169   168 1
  178   170   169 1
  179   171   170 1
  180   172   171 1
  181   173   172 1
  182   174   153 1
  183   174   173 1
  184   175   159 1
  185   176   159 1
  186   177   164 1
  187   178   168 1
  188   179   172 1
  189   180   179 1
  190   181   179 1
  191   182   179 1
  192   183   178 1
  193   184   178 1
  194   185   178 1
  195   186   177 1
  196   187   177 1
  197   188   177 1
  198   189   176 1
  199   190   176 1
  200   191   176 1
  201   192   175 1
  202   193   175 1
  203   194   175 1
  204   195   160 1
  205   196   160 1
  206   197   158 1
  207   198   158 1
  208   199   158 1
  209   200   157 1
  210   201   157 1
  211   202   157 1
  212   203   156 1
  213   204   156 1
  214   205   156 1
  215   206   155 1
  216   207   155 1
  217   208   155 1
  218   209   154 1
  219   210   154 1
  220   211   154 1
  221   212   141 1
  222   213   146 1
  223   214   145 1
  224   215   142 1
  225   216   142 1
  226   217   174 1
  227   218   173 1
  228   219   171 1
  229   220   170 1
  230   221   169 1
  231   222   140 1
  232   223   167 1
  233   224   166 1
  234   225   165 1
  235   226   163 1
  236   227   161 1
  237   228   139 1
  238   229   139 1
  239   230   153 1
  240   231   152 1
  241   232   150 1
  242   233   149 1
  243   234   148 1
  244   235   162 1
  245   65    153 1
  246   65    174 1
@<TRIPOS>SUBSTRUCTURE
      1 CLA               1 ****               0 ****  **** 
      2 LUT             138 ****               0 ****  **** 
