@<TRIPOS>MOLECULE
Cpptraj generated mol2 file.
  235   246     2     0     0
SMALL
USER_CHARGES


@<TRIPOS>ATOM
      1 CAA        77.5015   57.8818   34.1244 a2         1 CLA     -0.055900
      2 CAB        78.3819   61.5089   43.1524 c8         1 CLA     -0.148500
      3 CAC        71.3149   57.4498   43.0751 a2         1 CLA     -0.012600
      4 CAD        73.5095   55.1877   35.6757 ck         1 CLA      0.398800
      5 NA         76.7514   58.1765   37.6561 ns         1 CLA     -0.225500
      6 CBA        78.6970   57.7540   33.2296 a2         1 CLA     -0.135000
      7 CBB        79.6380   61.7332   43.6864 c0         1 CLA     -0.395200
      8 CBC        71.6145   55.9802   43.5178 a3         1 CLA     -0.037700
      9 CBD        74.9289   55.7818   35.2897 a1         1 CLA     -0.053900
     10 NB         76.8790   59.7558   40.2640 nm         1 CLA     -0.295700
     11 OBD        72.8944   54.4307   34.9333 o2         1 CLA     -0.494600
     12 CGA        79.0214   56.3254   32.7923 c4         1 CLA      0.827000
     13 CGD        75.8019   54.5889   34.9782 c4         1 CLA      0.655300
     14 ND         74.0953   57.0793   38.5621 nm         1 CLA     -0.291600
     15 CED        76.4020   52.3131   35.3651 a3         1 CLA      0.005400
     16 CHA        75.3452   56.6102   36.5051 cs         1 CLA     -0.123800
     17 CHB        78.5456   59.6599   38.4301 aa         1 CLA     -0.291900
     18 CHC        75.7697   59.8736   42.4231 aa         1 CLA     -0.090400
     19 CHD        72.4120   56.9290   40.2579 aa         1 CLA     -0.052000
     20 CMA        80.0515   57.5761   36.7098 a3         1 CLA     -0.230700
     21 CMB        80.3407   61.4159   40.4688 a3         1 CLA     -0.180800
     22 CMC        73.3347   59.4209   44.5969 a3         1 CLA     -0.134000
     23 CMD        70.9021   55.0714   38.0100 a3         1 CLA     -0.141100
     24 C1         79.8612   54.2095   33.7684 a2         1 CLA      0.023000
     25 C1A        76.5063   57.4034   36.5638 ac         1 CLA     -0.015100
     26 C1B        78.1415   60.0914   39.7466 cr         1 CLA      0.054700
     27 C1C        74.5759   59.1965   42.1867 cn         1 CLA     -0.005600
     28 C1D        72.8482   56.5817   38.9882 ap         1 CLA     -0.047300
     29 O1A        78.7800   55.7935   31.7327 o2         1 CLA     -0.610800
     30 O1D        76.5806   54.5683   34.0061 o2         1 CLA     -0.558200
     31 C2         80.4936   53.7118   35.0262 c8         1 CLA     -0.325100
     32 C2A        77.7147   57.3876   35.5796 a1         1 CLA      0.098600
     33 C2B        78.9550   60.7976   40.7213 cb         1 CLA      0.088500
     34 C2C        73.4980   58.9090   43.1893 cb         1 CLA      0.053700
     35 C2D        72.3121   55.6498   38.0495 cb         1 CLA      0.058900
     36 O2A        79.6482   55.6531   33.8860 o1         1 CLA     -0.437200
     37 O2D        75.7539   53.5309   35.8852 o1         1 CLA     -0.357600
     38 C3         81.2911   52.6714   35.1048 c5         1 CLA      0.031200
     39 C3A        78.7308   58.2431   36.2960 a1         1 CLA      0.166800
     40 C3B        78.1399   60.7693   41.8765 cb         1 CLA      0.035000
     41 C3C        72.5951   58.1052   42.5245 cb         1 CLA     -0.089900
     42 C3D        73.2178   55.6432   37.0115 cb         1 CLA     -0.035900
     43 C4         80.9096   51.2346   35.3257 a3         1 CLA     -0.053300
     44 C4A        77.9486   58.7593   37.5451 ac         1 CLA      0.001800
     45 C4B        76.8799   60.0659   41.5604 cn         1 CLA     -0.020900
     46 C4C        73.0096   57.8482   41.1948 cr         1 CLA     -0.044400
     47 C4D        74.2809   56.5219   37.3796 c6         1 CLA     -0.046000
     48 C5         82.8371   52.8815   34.9151 a2         1 CLA     -0.070400
     49 C6         83.4659   54.1149   35.5154 a2         1 CLA      0.043900
     50 C7         83.6465   54.1922   37.0708 a2         1 CLA     -0.150000
     51 C8         84.2792   55.5135   37.6084 a1         1 CLA      0.064200
     52 C9         85.7031   55.5747   37.0416 a3         1 CLA     -0.259300
     53 C10        84.3242   55.5366   39.2142 a2         1 CLA     -0.071900
     54 C11        83.0275   55.7612   40.0329 a2         1 CLA      0.014500
     55 C12        83.2860   56.4164   41.4019 a2         1 CLA     -0.112100
     56 C13        82.1027   56.4075   42.3029 a1         1 CLA      0.089200
     57 C14        81.0255   57.3770   41.6940 a3         1 CLA     -0.239100
     58 C15        82.4098   56.5343   43.8426 a2         1 CLA     -0.102200
     59 C16        83.0510   57.9190   44.1405 a2         1 CLA      0.023900
     60 C17        83.1093   58.1908   45.6460 a2         1 CLA     -0.105700
     61 C18        83.6889   59.5634   46.0720 a1         1 CLA      0.206800
     62 C19        85.1875   59.7293   45.8699 a3         1 CLA     -0.280100
     63 C20        82.8384   60.7399   45.5649 a3         1 CLA     -0.280100
     64 NC         74.2295   58.5251   41.0027 nx         1 CLA     -0.309200
     65 MG         75.4132   58.4774   39.3392 mg         1 CLA      0.895000
     66 HMD3       70.8543   54.2644   37.2982 dc         1 CLA      0.064300
     67 HMD2       70.5474   54.6497   38.9667 dc         1 CLA      0.064300
     68 HMD1       70.2037   55.7396   37.7380 dc         1 CLA      0.064300
     69 HMC3       74.1572   60.0052   44.9516 dc         1 CLA      0.052100
     70 HMC2       72.5554   60.1059   44.5449 dc         1 CLA      0.052100
     71 HMC1       73.2618   58.5987   45.2754 dc         1 CLA      0.052100
     72 HMB3       80.6053   62.2579   41.1019 dc         1 CLA      0.063600
     73 HMB2       81.1490   60.6690   40.5683 dc         1 CLA      0.063600
     74 HMB1       80.4801   61.7829   39.4730 dc         1 CLA      0.063600
     75 HMA3       80.7295   58.2575   37.2430 dc         1 CLA      0.058300
     76 HMA2       79.8796   56.6786   37.2909 dc         1 CLA      0.058300
     77 HMA1       80.5089   57.1880   35.7732 dc         1 CLA      0.058300
     78 HED3       75.9685   52.0715   34.4123 dc         1 CLA      0.079300
     79 HED2       77.5029   52.5131   35.3410 dc         1 CLA      0.079300
     80 HED1       76.3724   51.4531   36.0524 dc         1 CLA      0.079300
     81 HBC3       71.0600   55.7295   44.4096 dc         1 CLA      0.016300
     82 HBC2       71.2161   55.3513   42.7430 dc         1 CLA      0.016300
     83 HBC1       72.6628   55.7969   43.5605 dc         1 CLA      0.016300
     84 HBB2       79.7824   62.3024   44.5473 da         1 CLA      0.183000
     85 HBB1       80.5986   61.3821   43.2298 da         1 CLA      0.183000
     86 HBA2       78.3731   58.3095   32.2926 dc         1 CLA      0.029400
     87 HBA1       79.6819   58.0979   33.6265 dc         1 CLA      0.029400
     88 HAC2       71.0065   58.0098   43.9715 dc         1 CLA      0.029300
     89 HAC1       70.5523   57.4368   42.3424 dc         1 CLA      0.029300
     90 HAA2       76.6967   57.4357   33.6223 dc         1 CLA      0.028700
     91 HAA1       77.1664   58.8741   34.3161 dc         1 CLA      0.028700
     92 H203       83.3606   61.6922   45.7417 dc         1 CLA      0.065600
     93 H202       82.5540   60.6908   44.5450 dc         1 CLA      0.065600
     94 H201       81.8704   60.7191   46.0534 dc         1 CLA      0.065600
     95 H193       85.4880   60.5880   46.3023 dc         1 CLA      0.065600
     96 H192       85.7480   58.9473   46.3296 dc         1 CLA      0.065600
     97 H191       85.5115   59.6545   44.7783 dc         1 CLA      0.065600
     98 H172       82.0997   58.0359   46.0858 dc         1 CLA      0.027600
     99 H171       83.8413   57.5438   46.0081 dc         1 CLA      0.027600
    100 H162       84.0672   57.8221   43.7431 dc         1 CLA      0.002900
    101 H161       82.5520   58.7314   43.6261 dc         1 CLA      0.002900
    102 H152       81.5194   56.5394   44.3933 dc         1 CLA      0.029100
    103 H151       83.0447   55.6792   44.2529 dc         1 CLA      0.029100
    104 H143       81.5374   58.2755   41.2928 dc         1 CLA      0.063600
    105 H142       80.5348   56.8315   40.9305 dc         1 CLA      0.063600
    106 H141       80.2641   57.6703   42.4235 dc         1 CLA      0.063600
    107 H122       84.0452   55.9142   41.9782 dc         1 CLA      0.032500
    108 H121       83.6199   57.3736   41.2935 dc         1 CLA      0.032500
    109 H112       82.3804   56.4157   39.3795 dc         1 CLA      0.006600
    110 H111       82.3184   54.8488   40.0304 dc         1 CLA      0.006600
    111 H102       84.7604   54.5622   39.4553 dc         1 CLA      0.024100
    112 H101       84.9565   56.3748   39.4517 dc         1 CLA      0.024100
    113 HHD        71.4667   56.4029   40.5302 da         1 CLA      0.174300
    114 HHC        75.9153   60.2700   43.4248 da         1 CLA      0.136800
    115 HHB        79.4804   60.0451   38.0237 da         1 CLA      0.138300
    116 HBD        74.8577   56.3593   34.4544 dc         1 CLA      0.107700
    117 HAB        77.5544   62.0356   43.6195 da         1 CLA      0.155200
    118 H93        85.7169   55.8831   35.9598 dc         1 CLA      0.069500
    119 H92        86.1991   56.3509   37.6970 dc         1 CLA      0.069500
    120 H91        86.2865   54.6340   37.1822 dc         1 CLA      0.069500
    121 H8         83.7100   56.3565   37.1919 dc         1 CLA      0.029300
    122 H72        82.6330   54.2124   37.5089 dc         1 CLA      0.044400
    123 H71        84.3474   53.3324   37.3638 dc         1 CLA      0.044400
    124 H62        84.4441   54.1625   34.9647 dc         1 CLA      0.015600
    125 H61        82.9580   55.0580   35.1207 dc         1 CLA      0.015600
    126 H52        83.3361   51.9891   35.2648 dc         1 CLA      0.033200
    127 H51        83.0320   52.8898   33.7711 dc         1 CLA      0.033200
    128 H43        79.8551   51.1180   35.5131 dc         1 CLA      0.037000
    129 H42        81.2110   50.7119   34.4697 dc         1 CLA      0.037000
    130 H41        81.3859   50.7551   36.1329 dc         1 CLA      0.037000
    131 H3A        79.0227   59.0357   35.6479 dc         1 CLA      0.041100
    132 H2A        78.0083   56.3984   35.3346 dc         1 CLA      0.083100
    133 H2         80.3880   54.4212   35.8979 da         1 CLA      0.180900
    134 H18        83.5971   59.5488   47.1742 dc         1 CLA     -0.003900
    135 H13        81.5961   55.3921   42.2464 dc         1 CLA      0.019700
    136 H12        78.9007   53.6081   33.7185 dc         1 CLA      0.120400
    137 H11        80.4845   53.9295   32.9252 dc         1 CLA      0.120400
    138 C1         67.8929   61.3249   50.1549 Z1         2 LUT      0.509236
    139 C2         67.9988   62.4741   51.1026 Z2         2 LUT     -0.434695
    140 C3         66.7571   63.3386   51.3128 Z3         2 LUT      0.437453
    141 O3         67.1424   64.6770   51.7548 S1         2 LUT     -0.547129
    142 C4         65.8707   63.4243   50.1113 Z4         2 LUT     -0.468603
    143 C5         66.3323   62.8268   48.8436 Z5         2 LUT      0.279246
    144 C6         67.1935   61.7374   48.7915 Z6         2 LUT     -0.305473
    145 C7         67.8259   61.4401   47.5166 Z7         2 LUT      0.069402
    146 C8         69.0055   61.8853   47.0129 Z8         2 LUT     -0.191631
    147 C9         69.5567   61.6733   45.6859 Z9         2 LUT      0.196698
    148 C10        70.5780   62.4350   45.2606 Y1         2 LUT     -0.208611
    149 C11        71.1922   62.3299   43.9645 Y2         2 LUT      0.030784
    150 C12        72.4405   62.7049   43.7089 Y3         2 LUT     -0.220316
    151 C13        73.1524   62.6300   42.4261 Y4         2 LUT      0.215937
    152 C14        74.4743   63.0501   42.4662 Y5         2 LUT     -0.185793
    153 C15        75.3760   63.1988   41.3836 Y6         2 LUT     -0.057835
    154 C16        66.8134   60.4266   50.8729 Y7         2 LUT     -0.405615
    155 C17        69.1799   60.4504   50.2121 Y7         2 LUT     -0.405615
    156 C18        66.0842   63.8238   47.7197 Y9         2 LUT     -0.369639
    157 C19        68.9657   60.6128   44.7818 W1         2 LUT     -0.333362
    158 C20        72.5296   62.2526   41.1450 W2         2 LUT     -0.323439
    159 C21        86.6558   64.8526   34.6523 Z1         2 LUT      0.406104
    160 C22        87.4216   64.4885   33.3753 Z2         2 LUT     -0.404965
    161 C23        87.3638   65.6589   32.4236 Z3         2 LUT      0.391255
    162 O23        88.0224   65.2421   31.1994 S1         2 LUT     -0.528210
    163 C24        85.9904   66.3719   32.3081 W6         2 LUT     -0.258361
    164 C25        84.9800   66.1754   33.1847 Z5         2 LUT      0.133546
    165 C26        85.1219   65.1692   34.3806 W8         2 LUT     -0.147008
    166 C27        84.4006   65.6450   35.5882 Z7         2 LUT      0.023843
    167 C28        83.5456   64.8983   36.3020 Z8         2 LUT     -0.216987
    168 C29        82.9483   65.2206   37.5704 Z9         2 LUT      0.206524
    169 C30        81.7423   64.6462   37.9323 Y1         2 LUT     -0.215556
    170 C31        81.0575   64.9654   39.1933 Y2         2 LUT      0.025142
    171 C32        79.7768   64.4510   39.3065 Y3         2 LUT     -0.212209
    172 C33        78.8790   64.5672   40.4545 Y4         2 LUT      0.240937
    173 C34        77.6489   63.9628   40.4327 Y5         2 LUT     -0.218862
    174 C35        76.6015   63.8829   41.3652 Y6         2 LUT     -0.023547
    175 C36        87.5018   65.9631   35.3986 Y7         2 LUT     -0.393485
    176 C37        86.8671   63.5369   35.5082 Y7         2 LUT     -0.393485
    177 C38        83.6080   66.7540   33.0567 Y9         2 LUT     -0.387526
    178 C39        83.6519   66.2071   38.4800 W1         2 LUT     -0.322618
    179 C40        79.2932   65.5435   41.4720 W2         2 LUT     -0.358472
    180 H403       79.3856   66.5702   41.0834 R7         2 LUT      0.097720
    181 H402       78.7222   65.5799   42.4127 R7         2 LUT      0.097720
    182 H401       80.2677   65.2985   41.8291 R7         2 LUT      0.097720
    183 H393       83.0331   67.1245   38.5223 R4         2 LUT      0.082505
    184 H392       83.6599   65.7574   39.4608 R4         2 LUT      0.082505
    185 H391       84.6865   66.4416   38.3350 R4         2 LUT      0.082505
    186 H383       82.8594   65.9367   33.1677 R1         2 LUT      0.104030
    187 H382       83.4445   67.4101   33.9081 R1         2 LUT      0.104030
    188 H381       83.5697   67.2795   32.0843 R1         2 LUT      0.104030
    189 H373       86.2960   62.6743   35.1008 T4         2 LUT      0.089537
    190 H372       87.9349   63.2561   35.5439 T4         2 LUT      0.089537
    191 H371       86.5908   63.4809   36.5969 T4         2 LUT      0.089537
    192 H363       88.6125   65.6917   35.3700 T4         2 LUT      0.089537
    193 H362       87.3647   66.9367   34.8974 T4         2 LUT      0.089537
    194 H361       87.1876   66.2273   36.3589 T4         2 LUT      0.089537
    195 H222       88.4321   64.3398   33.5941 U2         2 LUT      0.127376
    196 H221       87.0805   63.5891   32.8833 U2         2 LUT      0.127376
    197 H203       71.5577   62.6522   41.0683 R7         2 LUT      0.087068
    198 H202       73.0412   62.3836   40.2039 R7         2 LUT      0.087068
    199 H201       72.2567   61.1874   41.1502 R7         2 LUT      0.087068
    200 H193       68.5191   59.7494   45.2942 R4         2 LUT      0.089716
    201 H192       68.0981   61.1271   44.2990 R4         2 LUT      0.089716
    202 H191       69.5684   60.1392   44.0958 R4         2 LUT      0.089716
    203 H183       65.0159   63.9677   47.5206 R1         2 LUT      0.094572
    204 H182       66.5776   64.7360   48.0057 R1         2 LUT      0.094572
    205 H181       66.4473   63.4113   46.7740 R1         2 LUT      0.094572
    206 H173       69.6393   60.2758   51.1606 T4         2 LUT      0.093752
    207 H172       68.8941   59.4729   49.7702 T4         2 LUT      0.093752
    208 H171       69.9808   60.7997   49.5589 T4         2 LUT      0.093752
    209 H163       65.8293   60.8498   51.0790 T4         2 LUT      0.093752
    210 H162       66.6287   59.5077   50.3058 T4         2 LUT      0.093752
    211 H161       67.1047   60.2655   51.8506 T4         2 LUT      0.093752
    212 HO3        66.4624   65.1234   52.2505 Q1         2 LUT      0.300121
    213 H8         69.5252   62.5538   47.7115 U7         2 LUT      0.080784
    214 H7         67.0627   61.0195   46.8249 U6         2 LUT      0.042190
    215 H42        64.8045   63.0994   50.2910 U5         2 LUT      0.145166
    216 H41        65.5813   64.5360   49.9638 U5         2 LUT      0.145166
    217 H35        76.8191   64.4167   42.2946 T3         2 LUT      0.077919
    218 H34        77.4606   63.3045   39.5865 T2         2 LUT      0.073626
    219 H32        79.4082   63.9231   38.4730 T1         2 LUT      0.092510
    220 H31        81.4878   65.4660   40.0422 U9         2 LUT      0.070048
    221 H30        81.2326   64.0118   37.1976 U8         2 LUT      0.085442
    222 H3         66.3069   62.8644   52.1630 U3         2 LUT     -0.031596
    223 H28        83.0879   64.0542   35.8147 U7         2 LUT      0.084728
    224 H27        84.8090   66.5715   35.9112 U6         2 LUT      0.087291
    225 H26        84.5573   64.2444   33.9931 Q6         2 LUT      0.075325
    226 H24        85.8459   66.9988   31.3941 Q5         2 LUT      0.094482
    227 H23        88.0706   66.3317   32.8692 U3         2 LUT     -0.024869
    228 H22        68.6967   62.4776   51.9751 U2         2 LUT      0.127376
    229 H21        68.7022   63.1162   50.6344 U2         2 LUT      0.127376
    230 H15        75.3268   62.7523   40.3755 T3         2 LUT      0.093200
    231 H14        74.8532   63.4023   43.3601 T2         2 LUT      0.068865
    232 H12        72.9724   63.0594   44.5380 T1         2 LUT      0.095507
    233 H11        70.6519   61.8025   43.1513 U9         2 LUT      0.068930
    234 H10        71.0741   63.1648   45.9190 U8         2 LUT      0.083911
    235 H1         87.3545   64.8571   30.5626 Q1         2 LUT      0.297311
@<TRIPOS>BOND
    1     6     1 1
    2     7     2 1
    3     8     3 1
    4     9     4 1
    5    11     4 1
    6    12     6 1
    7    13     9 1
    8    16     9 1
    9    25     5 1
   10    25    16 1
   11    26    10 1
   12    26    17 1
   13    27    18 1
   14    28    14 1
   15    28    19 1
   16    29    12 1
   17    30    13 1
   18    31    24 1
   19    32     1 1
   20    32    25 1
   21    33    21 1
   22    33    26 1
   23    34    22 1
   24    34    27 1
   25    35    23 1
   26    35    28 1
   27    36    12 1
   28    36    24 1
   29    37    13 1
   30    37    15 1
   31    38    31 1
   32    39    20 1
   33    39    32 1
   34    40     2 1
   35    40    33 1
   36    41     3 1
   37    41    34 1
   38    42     4 1
   39    42    35 1
   40    43    38 1
   41    44     5 1
   42    44    17 1
   43    44    39 1
   44    45    10 1
   45    45    18 1
   46    45    40 1
   47    46    19 1
   48    46    41 1
   49    47    14 1
   50    47    16 1
   51    47    42 1
   52    48    38 1
   53    49    48 1
   54    50    49 1
   55    51    50 1
   56    52    51 1
   57    53    51 1
   58    54    53 1
   59    55    54 1
   60    56    55 1
   61    57    56 1
   62    58    56 1
   63    59    58 1
   64    60    59 1
   65    61    60 1
   66    62    61 1
   67    63    61 1
   68    64    27 1
   69    64    46 1
   70    65     5 1
   71    65    10 1
   72    65    64 1
   73    65    14 1
   74    66    23 1
   75    67    23 1
   76    68    23 1
   77    69    22 1
   78    70    22 1
   79    71    22 1
   80    72    21 1
   81    73    21 1
   82    74    21 1
   83    75    20 1
   84    76    20 1
   85    77    20 1
   86    78    15 1
   87    79    15 1
   88    80    15 1
   89    81     8 1
   90    82     8 1
   91    83     8 1
   92    84     7 1
   93    85     7 1
   94    86     6 1
   95    87     6 1
   96    88     3 1
   97    89     3 1
   98    90     1 1
   99    91     1 1
  100    92    63 1
  101    93    63 1
  102    94    63 1
  103    95    62 1
  104    96    62 1
  105    97    62 1
  106    98    60 1
  107    99    60 1
  108   100    59 1
  109   101    59 1
  110   102    58 1
  111   103    58 1
  112   104    57 1
  113   105    57 1
  114   106    57 1
  115   107    55 1
  116   108    55 1
  117   109    54 1
  118   110    54 1
  119   111    53 1
  120   112    53 1
  121   113    19 1
  122   114    18 1
  123   115    17 1
  124   116     9 1
  125   117     2 1
  126   118    52 1
  127   119    52 1
  128   120    52 1
  129   121    51 1
  130   122    50 1
  131   123    50 1
  132   124    49 1
  133   125    49 1
  134   126    48 1
  135   127    48 1
  136   128    43 1
  137   129    43 1
  138   130    43 1
  139   131    39 1
  140   132    32 1
  141   133    31 1
  142   134    61 1
  143   135    56 1
  144   136    24 1
  145   137    24 1
  146   139   138 1
  147   140   139 1
  148   141   140 1
  149   142   140 1
  150   143   142 1
  151   144   138 1
  152   144   143 1
  153   145   144 1
  154   146   145 1
  155   147   146 1
  156   148   147 1
  157   149   148 1
  158   150   149 1
  159   151   150 1
  160   152   151 1
  161   153   152 1
  162   154   138 1
  163   155   138 1
  164   156   143 1
  165   157   147 1
  166   158   151 1
  167   160   159 1
  168   161   160 1
  169   162   161 1
  170   163   161 1
  171   164   163 1
  172   165   159 1
  173   165   164 1
  174   166   165 1
  175   167   166 1
  176   168   167 1
  177   169   168 1
  178   170   169 1
  179   171   170 1
  180   172   171 1
  181   173   172 1
  182   174   153 1
  183   174   173 1
  184   175   159 1
  185   176   159 1
  186   177   164 1
  187   178   168 1
  188   179   172 1
  189   180   179 1
  190   181   179 1
  191   182   179 1
  192   183   178 1
  193   184   178 1
  194   185   178 1
  195   186   177 1
  196   187   177 1
  197   188   177 1
  198   189   176 1
  199   190   176 1
  200   191   176 1
  201   192   175 1
  202   193   175 1
  203   194   175 1
  204   195   160 1
  205   196   160 1
  206   197   158 1
  207   198   158 1
  208   199   158 1
  209   200   157 1
  210   201   157 1
  211   202   157 1
  212   203   156 1
  213   204   156 1
  214   205   156 1
  215   206   155 1
  216   207   155 1
  217   208   155 1
  218   209   154 1
  219   210   154 1
  220   211   154 1
  221   212   141 1
  222   213   146 1
  223   214   145 1
  224   215   142 1
  225   216   142 1
  226   217   174 1
  227   218   173 1
  228   219   171 1
  229   220   170 1
  230   221   169 1
  231   222   140 1
  232   223   167 1
  233   224   166 1
  234   225   165 1
  235   226   163 1
  236   227   161 1
  237   228   139 1
  238   229   139 1
  239   230   153 1
  240   231   152 1
  241   232   150 1
  242   233   149 1
  243   234   148 1
  244   235   162 1
  245   65    153 1
  246   65    174 1
@<TRIPOS>SUBSTRUCTURE
      1 CLA               1 ****               0 ****  **** 
      2 LUT             138 ****               0 ****  **** 
