@<TRIPOS>MOLECULE
Cpptraj generated mol2 file.
  235   246     2     0     0
SMALL
USER_CHARGES


@<TRIPOS>ATOM
      1 CAA        79.8366   59.1098   34.5198 a2         1 CLA     -0.055900
      2 CAB        78.5198   62.4198   43.5500 c8         1 CLA     -0.148500
      3 CAC        72.6557   56.9437   42.5418 a2         1 CLA     -0.012600
      4 CAD        76.0867   55.8407   35.1871 ck         1 CLA      0.398800
      5 NA         78.4966   58.9493   37.9059 ns         1 CLA     -0.225500
      6 CBA        81.1773   59.1056   33.7012 a2         1 CLA     -0.135000
      7 CBB        79.4761   62.7777   44.3733 c0         1 CLA     -0.395200
      8 CBC        73.2054   55.6078   42.9970 a3         1 CLA     -0.037700
      9 CBD        77.4079   56.6554   34.9483 a1         1 CLA     -0.053900
     10 NB         78.0675   60.2761   40.5308 nm         1 CLA     -0.295700
     11 OBD        75.6793   55.1093   34.3082 o2         1 CLA     -0.494600
     12 CGA        81.8298   57.7369   33.3215 c4         1 CLA      0.827000
     13 CGD        78.5787   55.7437   34.5309 c4         1 CLA      0.655300
     14 ND         75.9146   57.7343   38.1429 nm         1 CLA     -0.291600
     15 CED        79.5985   53.6696   34.8393 a3         1 CLA      0.005400
     16 CHA        77.5824   57.4045   36.2247 cs         1 CLA     -0.123800
     17 CHB        79.9126   60.6386   39.0962 aa         1 CLA     -0.291900
     18 CHC        76.5134   60.3161   42.3975 aa         1 CLA     -0.090400
     19 CHD        74.0440   57.1228   39.6365 aa         1 CLA     -0.052000
     20 CMA        82.0984   58.8478   37.4696 a3         1 CLA     -0.230700
     21 CMB        81.0692   62.4336   41.2663 a3         1 CLA     -0.180800
     22 CMC        74.1603   59.3007   44.1621 a3         1 CLA     -0.134000
     23 CMD        73.2690   55.1778   37.2536 a3         1 CLA     -0.141100
     24 C1         83.0057   55.7424   34.0978 a2         1 CLA      0.023000
     25 C1A        78.6177   58.2806   36.6634 ac         1 CLA     -0.015100
     26 C1B        79.2301   60.8375   40.2681 cr         1 CLA      0.054700
     27 C1C        75.5154   59.3737   41.9780 cn         1 CLA     -0.005600
     28 C1D        74.7584   57.0338   38.3791 ap         1 CLA     -0.047300
     29 O1A        81.7713   57.2202   32.1927 o2         1 CLA     -0.610800
     30 O1D        79.3481   56.0385   33.5909 o2         1 CLA     -0.558200
     31 C2         83.5768   55.2191   35.4386 c8         1 CLA     -0.325100
     32 C2A        79.9607   58.5144   35.9226 a1         1 CLA      0.098600
     33 C2B        79.7503   61.6357   41.3102 cb         1 CLA      0.088500
     34 C2C        74.4393   58.8708   42.7710 cb         1 CLA      0.053700
     35 C2D        74.4280   56.0999   37.3252 cb         1 CLA      0.058900
     36 O2A        82.4218   57.0311   34.3886 o1         1 CLA     -0.437200
     37 O2D        78.5600   54.5722   35.3187 o1         1 CLA     -0.357600
     38 C3         84.3473   54.1264   35.4833 c5         1 CLA      0.031200
     39 C3A        80.7354   59.3883   36.9770 a1         1 CLA      0.166800
     40 C3B        78.6951   61.6534   42.2856 cb         1 CLA      0.035000
     41 C3C        73.8120   57.8733   42.0755 cb         1 CLA     -0.089900
     42 C3D        75.4876   56.2946   36.4357 cb         1 CLA     -0.035900
     43 C4         83.7501   52.7481   35.8013 a3         1 CLA     -0.053300
     44 C4A        79.6667   59.6808   38.1016 ac         1 CLA      0.001800
     45 C4B        77.6546   60.7278   41.7694 cn         1 CLA     -0.020900
     46 C4C        74.4100   57.8788   40.7145 cr         1 CLA     -0.044400
     47 C4D        76.4181   57.1773   37.0086 c6         1 CLA     -0.046000
     48 C5         85.8297   54.1270   35.4808 a2         1 CLA     -0.070400
     49 C6         86.4523   55.2972   36.3172 a2         1 CLA      0.043900
     50 C7         86.4486   55.0354   37.8109 a2         1 CLA     -0.150000
     51 C8         86.7195   56.1970   38.8654 a1         1 CLA      0.064200
     52 C9         87.8664   57.0639   38.2890 a3         1 CLA     -0.259300
     53 C10        87.1131   55.6863   40.2637 a2         1 CLA     -0.071900
     54 C11        87.3815   56.7383   41.2790 a2         1 CLA      0.014500
     55 C12        87.5715   56.0738   42.6663 a2         1 CLA     -0.112100
     56 C13        87.9526   56.9738   43.9211 a1         1 CLA      0.089200
     57 C14        89.5729   57.2241   43.8913 a3         1 CLA     -0.239100
     58 C15        87.5618   56.1936   45.2343 a2         1 CLA     -0.102200
     59 C16        87.6517   56.8880   46.5705 a2         1 CLA      0.023900
     60 C17        86.7525   58.1581   46.6979 a2         1 CLA     -0.105700
     61 C18        86.4647   58.5594   48.1298 a1         1 CLA      0.206800
     62 C19        85.5361   59.8225   48.0782 a3         1 CLA     -0.280100
     63 C20        85.8125   57.4778   49.0035 a3         1 CLA     -0.280100
     64 NC         75.5325   58.7424   40.8066 nx         1 CLA     -0.309200
     65 MG         76.9629   59.0292   39.2911 mg         1 CLA      0.895000
     66 HMD3       73.4002   54.5002   36.4746 dc         1 CLA      0.064300
     67 HMD2       73.2261   54.4995   38.1082 dc         1 CLA      0.064300
     68 HMD1       72.3333   55.7190   37.1353 dc         1 CLA      0.064300
     69 HMC3       73.9377   60.3914   44.1273 dc         1 CLA      0.052100
     70 HMC2       73.4211   58.7289   44.7236 dc         1 CLA      0.052100
     71 HMC1       75.0690   59.2382   44.7936 dc         1 CLA      0.052100
     72 HMB3       80.9589   63.5255   41.4912 dc         1 CLA      0.063600
     73 HMB2       81.6476   62.0903   42.0484 dc         1 CLA      0.063600
     74 HMB1       81.7530   62.2983   40.4124 dc         1 CLA      0.063600
     75 HMA3       82.0102   57.8857   37.9824 dc         1 CLA      0.058300
     76 HMA2       82.8592   58.8728   36.6598 dc         1 CLA      0.058300
     77 HMA1       82.5172   59.5495   38.2037 dc         1 CLA      0.058300
     78 HED3       80.5831   54.0952   35.0126 dc         1 CLA      0.079300
     79 HED2       79.3821   52.6727   35.2978 dc         1 CLA      0.079300
     80 HED1       79.5625   53.4371   33.7433 dc         1 CLA      0.079300
     81 HBC3       74.0865   55.8544   43.6035 dc         1 CLA      0.016300
     82 HBC2       72.6042   55.0099   43.6511 dc         1 CLA      0.016300
     83 HBC1       73.4358   54.9290   42.1767 dc         1 CLA      0.016300
     84 HBB2       79.1562   63.3670   45.2528 da         1 CLA      0.183000
     85 HBB1       80.5304   62.5367   44.2277 da         1 CLA      0.183000
     86 HBA2       81.0306   59.6114   32.7474 dc         1 CLA      0.029400
     87 HBA1       81.8809   59.6815   34.3502 dc         1 CLA      0.029400
     88 HAC2       72.1370   57.2870   43.5158 dc         1 CLA      0.029300
     89 HAC1       71.8774   56.8623   41.7994 dc         1 CLA      0.029300
     90 HAA2       79.1509   58.5510   33.9246 dc         1 CLA      0.028700
     91 HAA1       79.5312   60.1426   34.6742 dc         1 CLA      0.028700
     92 H203       85.0352   56.8132   48.4699 dc         1 CLA      0.065600
     93 H202       86.5244   56.7765   49.3993 dc         1 CLA      0.065600
     94 H201       85.2383   57.8549   49.8569 dc         1 CLA      0.065600
     95 H193       86.1012   60.6384   47.6313 dc         1 CLA      0.065600
     96 H192       84.4736   59.8078   47.7059 dc         1 CLA      0.065600
     97 H191       85.4895   60.1366   49.1011 dc         1 CLA      0.065600
     98 H172       87.3297   58.9654   46.2230 dc         1 CLA      0.027600
     99 H171       85.8361   58.1734   46.1230 dc         1 CLA      0.027600
    100 H162       87.3853   56.1162   47.2701 dc         1 CLA      0.002900
    101 H161       88.6969   57.0989   46.8056 dc         1 CLA      0.002900
    102 H152       86.5098   55.9949   45.1748 dc         1 CLA      0.029100
    103 H151       88.1649   55.2656   45.2739 dc         1 CLA      0.029100
    104 H143       89.6802   58.0291   43.1399 dc         1 CLA      0.063600
    105 H142       89.9538   57.7254   44.7285 dc         1 CLA      0.063600
    106 H141       90.2564   56.4018   43.5078 dc         1 CLA      0.063600
    107 H122       86.6505   55.5887   42.9214 dc         1 CLA      0.032500
    108 H121       88.3067   55.2686   42.6594 dc         1 CLA      0.032500
    109 H112       88.2937   57.3001   41.0188 dc         1 CLA      0.006600
    110 H111       86.5443   57.4925   41.3354 dc         1 CLA      0.006600
    111 H102       86.4510   54.8728   40.5657 dc         1 CLA      0.024100
    112 H101       88.1975   55.3061   40.1439 dc         1 CLA      0.024100
    113 HHD        73.0837   56.5578   39.6967 da         1 CLA      0.174300
    114 HHC        76.3189   60.9421   43.3253 da         1 CLA      0.136800
    115 HHB        80.9245   61.0361   39.0485 da         1 CLA      0.138300
    116 HBD        77.3194   57.3559   34.1418 dc         1 CLA      0.107700
    117 HAB        77.4826   62.6883   43.8273 da         1 CLA      0.155200
    118 H93        88.8207   56.5304   38.1082 dc         1 CLA      0.069500
    119 H92        87.4241   57.4708   37.3615 dc         1 CLA      0.069500
    120 H91        88.0523   57.9544   38.9294 dc         1 CLA      0.069500
    121 H8         85.8244   56.7778   38.9540 dc         1 CLA      0.029300
    122 H72        85.6683   54.3101   38.2401 dc         1 CLA      0.044400
    123 H71        87.3190   54.4861   37.8946 dc         1 CLA      0.044400
    124 H62        87.4797   55.5954   36.1104 dc         1 CLA      0.015600
    125 H61        85.8553   56.1874   36.0556 dc         1 CLA      0.015600
    126 H52        86.2957   53.2559   35.8253 dc         1 CLA      0.033200
    127 H51        85.9633   54.3228   34.4287 dc         1 CLA      0.033200
    128 H43        84.1672   52.0520   35.1247 dc         1 CLA      0.037000
    129 H42        83.9601   52.3450   36.8012 dc         1 CLA      0.037000
    130 H41        82.6877   52.7425   35.4840 dc         1 CLA      0.037000
    131 H3A        80.9894   60.2992   36.4885 dc         1 CLA      0.041100
    132 H2A        80.5130   57.5630   35.9434 dc         1 CLA      0.083100
    133 H2         83.3771   55.8075   36.3232 da         1 CLA      0.180900
    134 H18        87.4461   58.7154   48.5520 dc         1 CLA     -0.003900
    135 H13        87.5131   57.9709   43.9312 dc         1 CLA      0.019700
    136 H12        82.2342   55.1102   33.7343 dc         1 CLA      0.120400
    137 H11        83.7200   55.8797   33.3410 dc         1 CLA      0.120400
    138 C1         69.1875   61.1254   49.3895 Z1         2 LUT      0.509236
    139 C2         68.8802   61.9545   50.6145 Z2         2 LUT     -0.434695
    140 C3         67.4872   62.4878   50.6787 Z3         2 LUT      0.437453
    141 O3         67.3528   63.4517   51.6765 S1         2 LUT     -0.547129
    142 C4         67.1317   63.2179   49.3195 Z4         2 LUT     -0.468603
    143 C5         67.7338   62.7746   48.0074 Z5         2 LUT      0.279246
    144 C6         68.5959   61.7292   48.0291 Z6         2 LUT     -0.305473
    145 C7         69.5457   61.5313   46.8748 Z7         2 LUT      0.069402
    146 C8         70.4074   62.3068   46.1916 Z8         2 LUT     -0.191631
    147 C9         71.1097   61.9646   44.9581 Z9         2 LUT      0.196698
    148 C10        72.0791   62.7810   44.5185 Y1         2 LUT     -0.208611
    149 C11        72.8723   62.7027   43.3100 Y2         2 LUT      0.030784
    150 C12        74.0181   63.4651   43.1528 Y3         2 LUT     -0.220316
    151 C13        74.8080   63.5038   42.0014 Y4         2 LUT      0.215937
    152 C14        76.0137   64.2117   42.1812 Y5         2 LUT     -0.185793
    153 C15        77.1010   64.4100   41.2471 Y6         2 LUT     -0.057835
    154 C16        68.6520   59.6548   49.5496 Y7         2 LUT     -0.405615
    155 C17        70.7396   60.8992   49.3401 Y7         2 LUT     -0.405615
    156 C18        67.6025   63.8915   46.9362 Y9         2 LUT     -0.369639
    157 C19        70.5548   60.7566   44.2197 W1         2 LUT     -0.333362
    158 C20        74.1865   62.9318   40.6794 W2         2 LUT     -0.323439
    159 C21        88.4375   65.9004   34.8851 Z1         2 LUT      0.406104
    160 C22        88.8949   65.2230   33.5427 Z2         2 LUT     -0.404965
    161 C23        88.8968   66.0719   32.3414 Z3         2 LUT      0.391255
    162 O23        88.9592   65.1545   31.2339 S1         2 LUT     -0.528210
    163 C24        87.7258   66.9729   32.2648 W6         2 LUT     -0.258361
    164 C25        86.8554   67.2020   33.2476 Z5         2 LUT      0.133546
    165 C26        86.9309   66.3689   34.5098 W8         2 LUT     -0.147008
    166 C27        86.2257   66.9467   35.7513 Z7         2 LUT      0.023843
    167 C28        84.9678   66.6437   36.2715 Z8         2 LUT     -0.216987
    168 C29        84.4378   66.9265   37.6221 Z9         2 LUT      0.206524
    169 C30        83.1846   66.3935   38.0071 Y1         2 LUT     -0.215556
    170 C31        82.4799   66.4764   39.1659 Y2         2 LUT      0.025142
    171 C32        81.2653   65.9015   39.3640 Y3         2 LUT     -0.212209
    172 C33        80.3904   65.9611   40.5231 Y4         2 LUT      0.240937
    173 C34        79.1496   65.3020   40.4500 Y5         2 LUT     -0.218862
    174 C35        78.2159   65.0950   41.4915 Y6         2 LUT     -0.023547
    175 C36        89.3983   67.0027   35.3152 Y7         2 LUT     -0.393485
    176 C37        88.4166   64.7092   35.9238 Y7         2 LUT     -0.393485
    177 C38        85.6941   68.1237   32.9279 Y9         2 LUT     -0.387526
    178 C39        85.2907   67.5934   38.6469 W1         2 LUT     -0.322618
    179 C40        81.0388   66.4450   41.8554 W2         2 LUT     -0.358472
    180 H403       81.9893   65.9861   41.9460 R7         2 LUT      0.097720
    181 H402       81.0001   67.5187   42.0860 R7         2 LUT      0.097720
    182 H401       80.5268   65.9760   42.6702 R7         2 LUT      0.097720
    183 H393       86.3398   67.6969   38.4234 R4         2 LUT      0.082505
    184 H392       84.9465   68.6395   38.7189 R4         2 LUT      0.082505
    185 H391       85.3436   67.1505   39.6390 R4         2 LUT      0.082505
    186 H383       85.3322   68.7057   33.8756 R1         2 LUT      0.104030
    187 H382       85.8678   68.8383   32.0515 R1         2 LUT      0.104030
    188 H381       84.8744   67.5206   32.5710 R1         2 LUT      0.104030
    189 H373       89.4287   64.3314   36.1110 T4         2 LUT      0.089537
    190 H372       88.1142   65.0183   36.9632 T4         2 LUT      0.089537
    191 H371       87.8230   63.8018   35.5653 T4         2 LUT      0.089537
    192 H363       88.9341   67.5827   36.0899 T4         2 LUT      0.089537
    193 H362       90.3260   66.6110   35.7331 T4         2 LUT      0.089537
    194 H361       89.6246   67.7055   34.5540 T4         2 LUT      0.089537
    195 H222       89.8779   64.8951   33.7262 U2         2 LUT      0.127376
    196 H221       88.2029   64.4375   33.2975 U2         2 LUT      0.127376
    197 H203       74.7537   62.9297   39.7958 R7         2 LUT      0.087068
    198 H202       73.7359   61.9368   40.7450 R7         2 LUT      0.087068
    199 H201       73.3921   63.5766   40.5714 R7         2 LUT      0.087068
    200 H193       71.1134   59.8173   44.3686 R4         2 LUT      0.089716
    201 H192       69.5163   60.5979   44.4233 R4         2 LUT      0.089716
    202 H191       70.4979   60.9269   43.1362 R4         2 LUT      0.089716
    203 H183       68.4651   64.6301   47.1081 R1         2 LUT      0.094572
    204 H182       67.6410   63.4224   45.9894 R1         2 LUT      0.094572
    205 H181       66.6730   64.3776   46.9868 R1         2 LUT      0.094572
    206 H173       71.1620   61.8820   49.1527 T4         2 LUT      0.093752
    207 H172       71.1196   60.4424   50.2707 T4         2 LUT      0.093752
    208 H171       70.9995   60.1736   48.5822 T4         2 LUT      0.093752
    209 H163       69.2770   59.0641   50.2868 T4         2 LUT      0.093752
    210 H162       67.6506   59.6374   50.0258 T4         2 LUT      0.093752
    211 H161       68.5481   59.2079   48.5830 T4         2 LUT      0.093752
    212 HO3        67.1521   62.9423   52.5134 Q1         2 LUT      0.300121
    213 H8         70.6847   63.3135   46.4872 U7         2 LUT      0.080784
    214 H7         69.3391   60.5475   46.4273 U6         2 LUT      0.042190
    215 H42        66.0206   63.1237   49.3093 U5         2 LUT      0.145166
    216 H41        67.3020   64.2867   49.3381 U5         2 LUT      0.145166
    217 H35        78.3117   65.5067   42.5170 T3         2 LUT      0.077919
    218 H34        78.8997   64.9175   39.4360 T2         2 LUT      0.073626
    219 H32        80.9443   65.3395   38.5313 T1         2 LUT      0.092510
    220 H31        82.8830   67.0467   39.9762 U9         2 LUT      0.070048
    221 H30        82.5995   65.9122   37.1869 U8         2 LUT      0.085442
    222 H3         66.8844   61.5841   50.7471 U3         2 LUT     -0.031596
    223 H28        84.4095   66.0060   35.5935 U7         2 LUT      0.084728
    224 H27        86.9379   67.3633   36.4564 U6         2 LUT      0.087291
    225 H26        86.4156   65.4201   34.2538 Q6         2 LUT      0.075325
    226 H24        87.5734   67.4229   31.2826 Q5         2 LUT      0.094482
    227 H23        89.8662   66.6237   32.4083 U3         2 LUT     -0.024869
    228 H22        69.2131   61.5674   51.5504 U2         2 LUT      0.127376
    229 H21        69.4671   62.8729   50.5098 U2         2 LUT      0.127376
    230 H15        76.9731   64.0461   40.2070 T3         2 LUT      0.093200
    231 H14        76.3043   64.5771   43.1382 T2         2 LUT      0.068865
    232 H12        74.3568   64.0183   44.0506 T1         2 LUT      0.095507
    233 H11        72.6789   61.9927   42.4514 U9         2 LUT      0.068930
    234 H10        72.4359   63.5988   45.1468 U8         2 LUT      0.083911
    235 H1         89.1255   65.4661   30.3568 Q1         2 LUT      0.297311
@<TRIPOS>BOND
    1     6     1 1
    2     7     2 1
    3     8     3 1
    4     9     4 1
    5    11     4 1
    6    12     6 1
    7    13     9 1
    8    16     9 1
    9    25     5 1
   10    25    16 1
   11    26    10 1
   12    26    17 1
   13    27    18 1
   14    28    14 1
   15    28    19 1
   16    29    12 1
   17    30    13 1
   18    31    24 1
   19    32     1 1
   20    32    25 1
   21    33    21 1
   22    33    26 1
   23    34    22 1
   24    34    27 1
   25    35    23 1
   26    35    28 1
   27    36    12 1
   28    36    24 1
   29    37    13 1
   30    37    15 1
   31    38    31 1
   32    39    20 1
   33    39    32 1
   34    40     2 1
   35    40    33 1
   36    41     3 1
   37    41    34 1
   38    42     4 1
   39    42    35 1
   40    43    38 1
   41    44     5 1
   42    44    17 1
   43    44    39 1
   44    45    10 1
   45    45    18 1
   46    45    40 1
   47    46    19 1
   48    46    41 1
   49    47    14 1
   50    47    16 1
   51    47    42 1
   52    48    38 1
   53    49    48 1
   54    50    49 1
   55    51    50 1
   56    52    51 1
   57    53    51 1
   58    54    53 1
   59    55    54 1
   60    56    55 1
   61    57    56 1
   62    58    56 1
   63    59    58 1
   64    60    59 1
   65    61    60 1
   66    62    61 1
   67    63    61 1
   68    64    27 1
   69    64    46 1
   70    65     5 1
   71    65    10 1
   72    65    64 1
   73    65    14 1
   74    66    23 1
   75    67    23 1
   76    68    23 1
   77    69    22 1
   78    70    22 1
   79    71    22 1
   80    72    21 1
   81    73    21 1
   82    74    21 1
   83    75    20 1
   84    76    20 1
   85    77    20 1
   86    78    15 1
   87    79    15 1
   88    80    15 1
   89    81     8 1
   90    82     8 1
   91    83     8 1
   92    84     7 1
   93    85     7 1
   94    86     6 1
   95    87     6 1
   96    88     3 1
   97    89     3 1
   98    90     1 1
   99    91     1 1
  100    92    63 1
  101    93    63 1
  102    94    63 1
  103    95    62 1
  104    96    62 1
  105    97    62 1
  106    98    60 1
  107    99    60 1
  108   100    59 1
  109   101    59 1
  110   102    58 1
  111   103    58 1
  112   104    57 1
  113   105    57 1
  114   106    57 1
  115   107    55 1
  116   108    55 1
  117   109    54 1
  118   110    54 1
  119   111    53 1
  120   112    53 1
  121   113    19 1
  122   114    18 1
  123   115    17 1
  124   116     9 1
  125   117     2 1
  126   118    52 1
  127   119    52 1
  128   120    52 1
  129   121    51 1
  130   122    50 1
  131   123    50 1
  132   124    49 1
  133   125    49 1
  134   126    48 1
  135   127    48 1
  136   128    43 1
  137   129    43 1
  138   130    43 1
  139   131    39 1
  140   132    32 1
  141   133    31 1
  142   134    61 1
  143   135    56 1
  144   136    24 1
  145   137    24 1
  146   139   138 1
  147   140   139 1
  148   141   140 1
  149   142   140 1
  150   143   142 1
  151   144   138 1
  152   144   143 1
  153   145   144 1
  154   146   145 1
  155   147   146 1
  156   148   147 1
  157   149   148 1
  158   150   149 1
  159   151   150 1
  160   152   151 1
  161   153   152 1
  162   154   138 1
  163   155   138 1
  164   156   143 1
  165   157   147 1
  166   158   151 1
  167   160   159 1
  168   161   160 1
  169   162   161 1
  170   163   161 1
  171   164   163 1
  172   165   159 1
  173   165   164 1
  174   166   165 1
  175   167   166 1
  176   168   167 1
  177   169   168 1
  178   170   169 1
  179   171   170 1
  180   172   171 1
  181   173   172 1
  182   174   153 1
  183   174   173 1
  184   175   159 1
  185   176   159 1
  186   177   164 1
  187   178   168 1
  188   179   172 1
  189   180   179 1
  190   181   179 1
  191   182   179 1
  192   183   178 1
  193   184   178 1
  194   185   178 1
  195   186   177 1
  196   187   177 1
  197   188   177 1
  198   189   176 1
  199   190   176 1
  200   191   176 1
  201   192   175 1
  202   193   175 1
  203   194   175 1
  204   195   160 1
  205   196   160 1
  206   197   158 1
  207   198   158 1
  208   199   158 1
  209   200   157 1
  210   201   157 1
  211   202   157 1
  212   203   156 1
  213   204   156 1
  214   205   156 1
  215   206   155 1
  216   207   155 1
  217   208   155 1
  218   209   154 1
  219   210   154 1
  220   211   154 1
  221   212   141 1
  222   213   146 1
  223   214   145 1
  224   215   142 1
  225   216   142 1
  226   217   174 1
  227   218   173 1
  228   219   171 1
  229   220   170 1
  230   221   169 1
  231   222   140 1
  232   223   167 1
  233   224   166 1
  234   225   165 1
  235   226   163 1
  236   227   161 1
  237   228   139 1
  238   229   139 1
  239   230   153 1
  240   231   152 1
  241   232   150 1
  242   233   149 1
  243   234   148 1
  244   235   162 1
  245   65    153 1
  246   65    174 1
@<TRIPOS>SUBSTRUCTURE
      1 CLA               1 ****               0 ****  **** 
      2 LUT             138 ****               0 ****  **** 
