@<TRIPOS>MOLECULE
Cpptraj generated mol2 file.
  235   246     2     0     0
SMALL
USER_CHARGES


@<TRIPOS>ATOM
      1 CAA        78.8949   58.5928   33.6037 a2         1 CLA     -0.055900
      2 CAB        79.2894   61.7624   42.8767 c8         1 CLA     -0.148500
      3 CAC        72.3693   57.7853   42.4004 a2         1 CLA     -0.012600
      4 CAD        74.6032   56.1944   34.7128 ck         1 CLA      0.398800
      5 NA         77.8845   59.0234   37.0221 ns         1 CLA     -0.225500
      6 CBA        80.1517   58.4105   32.7732 a2         1 CLA     -0.135000
      7 CBB        80.4996   62.0452   43.3974 c0         1 CLA     -0.395200
      8 CBC        72.3455   56.2358   42.6694 a3         1 CLA     -0.037700
      9 CBD        76.0199   56.6496   34.4501 a1         1 CLA     -0.053900
     10 NB         78.0316   60.0465   39.8071 nm         1 CLA     -0.295700
     11 OBD        73.9412   55.6390   33.8633 o2         1 CLA     -0.494600
     12 CGA        80.4562   57.0104   32.4688 c4         1 CLA      0.827000
     13 CGD        76.8126   55.3757   34.1466 c4         1 CLA      0.655300
     14 ND         75.1303   57.9955   37.6799 nm         1 CLA     -0.291600
     15 CED        77.0861   53.0561   34.5695 a3         1 CLA      0.005400
     16 CHA        76.4584   57.5489   35.6828 cs         1 CLA     -0.123800
     17 CHB        79.7101   60.3846   37.9808 aa         1 CLA     -0.291900
     18 CHC        76.8142   60.1363   41.9799 aa         1 CLA     -0.090400
     19 CHD        73.4104   57.6113   39.4451 aa         1 CLA     -0.052000
     20 CMA        81.2309   58.3004   36.2955 a3         1 CLA     -0.230700
     21 CMB        81.1957   62.1491   40.1204 a3         1 CLA     -0.180800
     22 CMC        74.6597   59.2237   44.1815 a3         1 CLA     -0.134000
     23 CMD        71.8472   56.2071   36.9507 a3         1 CLA     -0.141100
     24 C1         81.2156   54.8987   33.4675 a2         1 CLA      0.023000
     25 C1A        77.6607   58.3220   35.8523 ac         1 CLA     -0.015100
     26 C1B        79.1684   60.6588   39.2551 cr         1 CLA      0.054700
     27 C1C        75.6680   59.4056   41.7275 cn         1 CLA     -0.005600
     28 C1D        73.8487   57.4875   38.1061 ap         1 CLA     -0.047300
     29 O1A        80.1026   56.3815   31.4604 o2         1 CLA     -0.610800
     30 O1D        77.7060   55.2959   33.2609 o2         1 CLA     -0.558200
     31 C2         82.0118   54.5515   34.6740 c8         1 CLA     -0.325100
     32 C2A        78.9048   58.1845   35.0651 a1         1 CLA      0.098600
     33 C2B        79.8755   61.4677   40.3378 cb         1 CLA      0.088500
     34 C2C        74.6565   58.9660   42.6817 cb         1 CLA      0.053700
     35 C2D        73.2114   56.8373   36.9836 cb         1 CLA      0.058900
     36 O2A        81.1201   56.3762   33.4988 o1         1 CLA     -0.437200
     37 O2D        76.4721   54.3473   34.9573 o1         1 CLA     -0.357600
     38 C3         82.6536   53.4482   35.0183 c5         1 CLA      0.031200
     39 C3A        79.9764   59.0571   35.8343 a1         1 CLA      0.166800
     40 C3B        79.0421   61.2788   41.5117 cb         1 CLA      0.035000
     41 C3C        73.6482   58.3275   41.8837 cb         1 CLA     -0.089900
     42 C3D        74.2334   56.7396   35.9991 cb         1 CLA     -0.035900
     43 C4         81.8955   52.2624   35.5984 a3         1 CLA     -0.053300
     44 C4A        79.1668   59.5865   36.9974 ac         1 CLA      0.001800
     45 C4B        77.8595   60.5353   41.1209 cn         1 CLA     -0.020900
     46 C4C        74.1004   58.3412   40.5557 cr         1 CLA     -0.044400
     47 C4D        75.3504   57.4941   36.5134 c6         1 CLA     -0.046000
     48 C5         84.1320   53.2912   34.6215 a2         1 CLA     -0.070400
     49 C6         85.1254   54.4311   35.1718 a2         1 CLA      0.043900
     50 C7         84.8705   54.7144   36.6596 a2         1 CLA     -0.150000
     51 C8         85.8730   55.7858   37.3451 a1         1 CLA      0.064200
     52 C9         87.3585   55.5004   36.9876 a3         1 CLA     -0.259300
     53 C10        85.6394   55.9664   38.9007 a2         1 CLA     -0.071900
     54 C11        84.2598   56.3884   39.3676 a2         1 CLA      0.014500
     55 C12        84.2636   56.7219   40.8912 a2         1 CLA     -0.112100
     56 C13        82.8825   57.1422   41.4434 a1         1 CLA      0.089200
     57 C14        82.1639   58.4479   40.8999 a3         1 CLA     -0.239100
     58 C15        82.9086   57.0900   43.0018 a2         1 CLA     -0.102200
     59 C16        84.0062   57.9769   43.7193 a2         1 CLA      0.023900
     60 C17        83.9785   57.6939   45.1733 a2         1 CLA     -0.105700
     61 C18        84.8077   58.6124   46.0882 a1         1 CLA      0.206800
     62 C19        84.2721   60.0747   46.3155 a3         1 CLA     -0.280100
     63 C20        85.2480   57.9074   47.4707 a3         1 CLA     -0.280100
     64 NC         75.3240   58.9354   40.4722 nx         1 CLA     -0.309200
     65 MG         76.5403   59.1513   38.6834 mg         1 CLA      0.895000
     66 HMD3       71.9289   55.4983   37.7049 dc         1 CLA      0.064300
     67 HMD2       71.0288   56.9102   37.1796 dc         1 CLA      0.064300
     68 HMD1       71.5964   55.6788   36.0563 dc         1 CLA      0.064300
     69 HMC3       75.7435   59.2459   44.4715 dc         1 CLA      0.052100
     70 HMC2       74.0957   60.0652   44.4218 dc         1 CLA      0.052100
     71 HMC1       74.2304   58.3889   44.6097 dc         1 CLA      0.052100
     72 HMB3       81.5124   62.2218   39.0669 dc         1 CLA      0.063600
     73 HMB2       80.9988   63.1580   40.5006 dc         1 CLA      0.063600
     74 HMB1       81.9572   61.6485   40.6791 dc         1 CLA      0.063600
     75 HMA3       81.8245   58.0851   35.4452 dc         1 CLA      0.058300
     76 HMA2       81.7829   59.0719   36.8290 dc         1 CLA      0.058300
     77 HMA1       80.9235   57.5426   36.9555 dc         1 CLA      0.058300
     78 HED3       78.1196   53.0679   34.7843 dc         1 CLA      0.079300
     79 HED2       76.5533   52.3216   35.1351 dc         1 CLA      0.079300
     80 HED1       76.9584   52.8572   33.4866 dc         1 CLA      0.079300
     81 HBC3       73.4257   55.9375   42.7490 dc         1 CLA      0.016300
     82 HBC2       71.8170   55.9249   43.6453 dc         1 CLA      0.016300
     83 HBC1       71.8295   55.6261   41.8921 dc         1 CLA      0.016300
     84 HBB2       80.6367   62.5473   44.2934 da         1 CLA      0.183000
     85 HBB1       81.4604   61.8050   42.8794 da         1 CLA      0.183000
     86 HBA2       80.1581   59.0492   31.8915 dc         1 CLA      0.029400
     87 HBA1       81.0063   58.8001   33.3176 dc         1 CLA      0.029400
     88 HAC2       72.2001   58.1990   43.3835 dc         1 CLA      0.029300
     89 HAC1       71.5541   57.9875   41.7591 dc         1 CLA      0.029300
     90 HAA2       78.0998   58.0324   33.1212 dc         1 CLA      0.028700
     91 HAA1       78.6070   59.6111   33.5616 dc         1 CLA      0.028700
     92 H203       85.9481   57.1859   47.1641 dc         1 CLA      0.065600
     93 H202       85.7521   58.5865   48.1112 dc         1 CLA      0.065600
     94 H201       84.4487   57.4450   48.0626 dc         1 CLA      0.065600
     95 H193       83.6861   60.3004   45.4195 dc         1 CLA      0.065600
     96 H192       83.7974   60.0608   47.2411 dc         1 CLA      0.065600
     97 H191       85.1604   60.6445   46.4536 dc         1 CLA      0.065600
     98 H172       82.9879   57.9392   45.6214 dc         1 CLA      0.027600
     99 H171       84.2203   56.6599   45.3071 dc         1 CLA      0.027600
    100 H162       84.9782   57.7994   43.3855 dc         1 CLA      0.002900
    101 H161       83.7429   59.0120   43.5105 dc         1 CLA      0.002900
    102 H152       81.9037   57.3812   43.4580 dc         1 CLA      0.029100
    103 H151       83.1209   56.0695   43.3038 dc         1 CLA      0.029100
    104 H143       82.2918   58.6496   39.8302 dc         1 CLA      0.063600
    105 H142       81.0402   58.4755   41.1497 dc         1 CLA      0.063600
    106 H141       82.6186   59.2914   41.3660 dc         1 CLA      0.063600
    107 H122       84.7154   55.9672   41.5025 dc         1 CLA      0.032500
    108 H121       84.8306   57.6972   40.8594 dc         1 CLA      0.032500
    109 H112       83.9331   57.2348   38.7463 dc         1 CLA      0.006600
    110 H111       83.5318   55.6300   39.2459 dc         1 CLA      0.006600
    111 H102       86.0604   55.0886   39.3740 dc         1 CLA      0.024100
    112 H101       86.2435   56.7677   39.1079 dc         1 CLA      0.024100
    113 HHD        72.5811   57.0425   39.7410 da         1 CLA      0.174300
    114 HHC        76.9039   60.5602   42.9515 da         1 CLA      0.136800
    115 HHB        80.5973   60.9633   37.7040 da         1 CLA      0.138300
    116 HBD        75.8909   57.0988   33.4759 dc         1 CLA      0.107700
    117 HAB        78.4468   61.8389   43.5393 da         1 CLA      0.155200
    118 H93        87.7308   54.5067   37.3831 dc         1 CLA      0.069500
    119 H92        87.4265   55.4302   35.8992 dc         1 CLA      0.069500
    120 H91        87.9973   56.1714   37.5031 dc         1 CLA      0.069500
    121 H8         85.6597   56.7476   36.8395 dc         1 CLA      0.029300
    122 H72        83.8371   54.9440   36.9499 dc         1 CLA      0.044400
    123 H71        85.2349   53.7505   37.1839 dc         1 CLA      0.044400
    124 H62        86.1162   54.1869   35.0058 dc         1 CLA      0.015600
    125 H61        84.9486   55.3467   34.6031 dc         1 CLA      0.015600
    126 H52        84.5328   52.3311   34.8810 dc         1 CLA      0.033200
    127 H51        84.1718   53.3781   33.5381 dc         1 CLA      0.033200
    128 H43        80.8733   52.3131   35.2635 dc         1 CLA      0.037000
    129 H42        82.3715   51.3106   35.3183 dc         1 CLA      0.037000
    130 H41        81.9281   52.4693   36.6577 dc         1 CLA      0.037000
    131 H3A        80.3619   59.9257   35.2528 dc         1 CLA      0.041100
    132 H2A        79.0454   57.0701   35.1643 dc         1 CLA      0.083100
    133 H2         81.9920   55.3057   35.4301 da         1 CLA      0.180900
    134 H18        85.7716   58.6269   45.4592 dc         1 CLA     -0.003900
    135 H13        82.1784   56.2575   41.3469 dc         1 CLA      0.019700
    136 H12        80.1399   54.5742   33.6218 dc         1 CLA      0.120400
    137 H11        81.6370   54.4181   32.5858 dc         1 CLA      0.120400
    138 C1         68.8229   61.4643   49.2571 Z1         2 LUT      0.509236
    139 C2         68.4473   61.9056   50.7226 Z2         2 LUT     -0.434695
    140 C3         66.9814   62.2707   50.8781 Z3         2 LUT      0.437453
    141 O3         66.7289   62.7207   52.2017 S1         2 LUT     -0.547129
    142 C4         66.6505   63.3395   49.9215 Z4         2 LUT     -0.468603
    143 C5         67.1339   63.1607   48.5365 Z5         2 LUT      0.279246
    144 C6         68.0931   62.2535   48.1768 Z6         2 LUT     -0.305473
    145 C7         68.4427   62.0287   46.7586 Z7         2 LUT      0.069402
    146 C8         69.6463   62.1516   46.1002 Z8         2 LUT     -0.191631
    147 C9         70.0608   61.9228   44.7171 Z9         2 LUT      0.196698
    148 C10        71.2609   62.4807   44.3884 Y1         2 LUT     -0.208611
    149 C11        72.0540   62.2314   43.2394 Y2         2 LUT      0.030784
    150 C12        73.2351   62.9399   42.9705 Y3         2 LUT     -0.220316
    151 C13        74.1576   62.8403   41.8927 Y4         2 LUT      0.215937
    152 C14        75.2544   63.7043   41.9062 Y5         2 LUT     -0.185793
    153 C15        76.4184   63.6869   41.0070 Y6         2 LUT     -0.057835
    154 C16        68.6000   59.9041   49.2288 Y7         2 LUT     -0.405615
    155 C17        70.4229   61.4079   49.1524 Y7         2 LUT     -0.405615
    156 C18        66.5091   64.2430   47.6723 Y9         2 LUT     -0.369639
    157 C19        69.0725   61.0306   43.9518 W1         2 LUT     -0.333362
    158 C20        73.6470   62.0569   40.7173 W2         2 LUT     -0.323439
    159 C21        87.3729   66.3320   34.5585 Z1         2 LUT      0.406104
    160 C22        88.2762   65.8770   33.3724 Z2         2 LUT     -0.404965
    161 C23        88.3877   66.9626   32.3226 Z3         2 LUT      0.391255
    162 O23        89.2404   66.4107   31.3323 S1         2 LUT     -0.528210
    163 C24        87.0404   67.6382   32.0611 W6         2 LUT     -0.258361
    164 C25        85.9497   67.6637   32.8216 Z5         2 LUT      0.133546
    165 C26        85.8866   66.8658   34.1205 W8         2 LUT     -0.147008
    166 C27        85.1312   67.5907   35.3183 Z7         2 LUT      0.023843
    167 C28        84.0874   66.9526   35.8259 Z8         2 LUT     -0.216987
    168 C29        83.3233   67.2503   37.0687 Z9         2 LUT      0.206524
    169 C30        82.2487   66.4396   37.3977 Y1         2 LUT     -0.215556
    170 C31        81.4235   66.3334   38.5282 Y2         2 LUT      0.025142
    171 C32        80.4422   65.4282   38.8602 Y3         2 LUT     -0.212209
    172 C33        79.5376   65.3847   40.0531 Y4         2 LUT      0.240937
    173 C34        78.4391   64.5505   40.0999 Y5         2 LUT     -0.218862
    174 C35        77.3532   64.6849   41.0126 Y6         2 LUT     -0.023547
    175 C36        88.2197   67.3631   35.3082 Y7         2 LUT     -0.393485
    176 C37        87.2261   65.0895   35.5638 Y7         2 LUT     -0.393485
    177 C38        84.6118   68.3471   32.4088 Y9         2 LUT     -0.387526
    178 C39        83.6812   68.4391   37.9051 W1         2 LUT     -0.322618
    179 C40        79.8590   66.2665   41.2374 W2         2 LUT     -0.358472
    180 H403       79.5160   67.3446   41.0036 R7         2 LUT      0.097720
    181 H402       79.4322   65.9437   42.1853 R7         2 LUT      0.097720
    182 H401       80.9309   66.1950   41.3021 R7         2 LUT      0.097720
    183 H393       83.9302   69.3030   37.2718 R4         2 LUT      0.082505
    184 H392       82.8857   68.8183   38.5797 R4         2 LUT      0.082505
    185 H391       84.5265   68.2313   38.5650 R4         2 LUT      0.082505
    186 H383       84.5822   69.0208   31.5388 R1         2 LUT      0.104030
    187 H382       83.9195   67.5756   32.1814 R1         2 LUT      0.104030
    188 H381       84.2302   68.9476   33.2351 R1         2 LUT      0.104030
    189 H373       86.7866   65.3777   36.5327 T4         2 LUT      0.089537
    190 H372       86.5983   64.2928   35.1867 T4         2 LUT      0.089537
    191 H371       88.1497   64.5997   35.6733 T4         2 LUT      0.089537
    192 H363       87.6479   67.7882   36.1220 T4         2 LUT      0.089537
    193 H362       89.1252   66.9262   35.7089 T4         2 LUT      0.089537
    194 H361       88.5960   68.1648   34.7026 T4         2 LUT      0.089537
    195 H222       89.2203   65.5331   33.8253 U2         2 LUT      0.127376
    196 H221       87.8633   64.9910   32.9469 U2         2 LUT      0.127376
    197 H203       74.0327   62.3308   39.7989 R7         2 LUT      0.087068
    198 H202       73.8510   61.0082   40.9025 R7         2 LUT      0.087068
    199 H201       72.5850   62.1270   40.5220 R7         2 LUT      0.087068
    200 H193       68.7230   60.1674   44.5785 R4         2 LUT      0.089716
    201 H192       68.1230   61.4396   43.7583 R4         2 LUT      0.089716
    202 H191       69.4518   60.7082   42.9928 R4         2 LUT      0.089716
    203 H183       65.4278   64.2681   47.6696 R1         2 LUT      0.094572
    204 H182       66.8393   65.2595   47.9097 R1         2 LUT      0.094572
    205 H181       66.7268   64.0574   46.6155 R1         2 LUT      0.094572
    206 H173       70.7965   60.9680   50.1011 T4         2 LUT      0.093752
    207 H172       70.6963   60.7585   48.3461 T4         2 LUT      0.093752
    208 H171       70.7373   62.3982   48.9483 T4         2 LUT      0.093752
    209 H163       68.9600   59.4152   48.3541 T4         2 LUT      0.093752
    210 H162       69.1764   59.3423   49.9514 T4         2 LUT      0.093752
    211 H161       67.5942   59.6722   49.3848 T4         2 LUT      0.093752
    212 HO3        66.6909   61.9119   52.8320 Q1         2 LUT      0.300121
    213 H8         70.4315   62.4583   46.8212 U7         2 LUT      0.080784
    214 H7         67.6190   61.6395   46.1620 U6         2 LUT      0.042190
    215 H42        65.5705   63.5765   49.8308 U5         2 LUT      0.145166
    216 H41        66.9717   64.3191   50.3117 U5         2 LUT      0.145166
    217 H35        77.1645   65.5861   41.6116 T3         2 LUT      0.077919
    218 H34        78.2557   63.8252   39.3247 T2         2 LUT      0.073626
    219 H32        80.0734   64.7454   38.1338 T1         2 LUT      0.092510
    220 H31        81.6229   67.0287   39.3638 U9         2 LUT      0.070048
    221 H30        82.0088   65.6532   36.6313 U8         2 LUT      0.085442
    222 H3         66.3222   61.4934   50.5341 U3         2 LUT     -0.031596
    223 H28        83.7708   66.1166   35.2311 U7         2 LUT      0.084728
    224 H27        85.5645   68.5328   35.6760 U6         2 LUT      0.087291
    225 H26        85.2763   66.0238   33.6660 Q6         2 LUT      0.075325
    226 H24        86.8872   68.2130   31.1781 Q5         2 LUT      0.094482
    227 H23        89.0386   67.7109   32.7513 U3         2 LUT     -0.024869
    228 H22        68.7622   61.1163   51.4303 U2         2 LUT      0.127376
    229 H21        69.0207   62.7881   50.9441 U2         2 LUT      0.127376
    230 H15        76.4271   62.8459   40.3738 T3         2 LUT      0.093200
    231 H14        75.2528   64.2946   42.7720 T2         2 LUT      0.068865
    232 H12        73.5232   63.7410   43.7116 T1         2 LUT      0.095507
    233 H11        71.8588   61.3816   42.5337 U9         2 LUT      0.068930
    234 H10        71.6796   63.1839   45.1257 U8         2 LUT      0.083911
    235 H1         88.7194   66.1654   30.5152 Q1         2 LUT      0.297311
@<TRIPOS>BOND
    1     6     1 1
    2     7     2 1
    3     8     3 1
    4     9     4 1
    5    11     4 1
    6    12     6 1
    7    13     9 1
    8    16     9 1
    9    25     5 1
   10    25    16 1
   11    26    10 1
   12    26    17 1
   13    27    18 1
   14    28    14 1
   15    28    19 1
   16    29    12 1
   17    30    13 1
   18    31    24 1
   19    32     1 1
   20    32    25 1
   21    33    21 1
   22    33    26 1
   23    34    22 1
   24    34    27 1
   25    35    23 1
   26    35    28 1
   27    36    12 1
   28    36    24 1
   29    37    13 1
   30    37    15 1
   31    38    31 1
   32    39    20 1
   33    39    32 1
   34    40     2 1
   35    40    33 1
   36    41     3 1
   37    41    34 1
   38    42     4 1
   39    42    35 1
   40    43    38 1
   41    44     5 1
   42    44    17 1
   43    44    39 1
   44    45    10 1
   45    45    18 1
   46    45    40 1
   47    46    19 1
   48    46    41 1
   49    47    14 1
   50    47    16 1
   51    47    42 1
   52    48    38 1
   53    49    48 1
   54    50    49 1
   55    51    50 1
   56    52    51 1
   57    53    51 1
   58    54    53 1
   59    55    54 1
   60    56    55 1
   61    57    56 1
   62    58    56 1
   63    59    58 1
   64    60    59 1
   65    61    60 1
   66    62    61 1
   67    63    61 1
   68    64    27 1
   69    64    46 1
   70    65     5 1
   71    65    10 1
   72    65    64 1
   73    65    14 1
   74    66    23 1
   75    67    23 1
   76    68    23 1
   77    69    22 1
   78    70    22 1
   79    71    22 1
   80    72    21 1
   81    73    21 1
   82    74    21 1
   83    75    20 1
   84    76    20 1
   85    77    20 1
   86    78    15 1
   87    79    15 1
   88    80    15 1
   89    81     8 1
   90    82     8 1
   91    83     8 1
   92    84     7 1
   93    85     7 1
   94    86     6 1
   95    87     6 1
   96    88     3 1
   97    89     3 1
   98    90     1 1
   99    91     1 1
  100    92    63 1
  101    93    63 1
  102    94    63 1
  103    95    62 1
  104    96    62 1
  105    97    62 1
  106    98    60 1
  107    99    60 1
  108   100    59 1
  109   101    59 1
  110   102    58 1
  111   103    58 1
  112   104    57 1
  113   105    57 1
  114   106    57 1
  115   107    55 1
  116   108    55 1
  117   109    54 1
  118   110    54 1
  119   111    53 1
  120   112    53 1
  121   113    19 1
  122   114    18 1
  123   115    17 1
  124   116     9 1
  125   117     2 1
  126   118    52 1
  127   119    52 1
  128   120    52 1
  129   121    51 1
  130   122    50 1
  131   123    50 1
  132   124    49 1
  133   125    49 1
  134   126    48 1
  135   127    48 1
  136   128    43 1
  137   129    43 1
  138   130    43 1
  139   131    39 1
  140   132    32 1
  141   133    31 1
  142   134    61 1
  143   135    56 1
  144   136    24 1
  145   137    24 1
  146   139   138 1
  147   140   139 1
  148   141   140 1
  149   142   140 1
  150   143   142 1
  151   144   138 1
  152   144   143 1
  153   145   144 1
  154   146   145 1
  155   147   146 1
  156   148   147 1
  157   149   148 1
  158   150   149 1
  159   151   150 1
  160   152   151 1
  161   153   152 1
  162   154   138 1
  163   155   138 1
  164   156   143 1
  165   157   147 1
  166   158   151 1
  167   160   159 1
  168   161   160 1
  169   162   161 1
  170   163   161 1
  171   164   163 1
  172   165   159 1
  173   165   164 1
  174   166   165 1
  175   167   166 1
  176   168   167 1
  177   169   168 1
  178   170   169 1
  179   171   170 1
  180   172   171 1
  181   173   172 1
  182   174   153 1
  183   174   173 1
  184   175   159 1
  185   176   159 1
  186   177   164 1
  187   178   168 1
  188   179   172 1
  189   180   179 1
  190   181   179 1
  191   182   179 1
  192   183   178 1
  193   184   178 1
  194   185   178 1
  195   186   177 1
  196   187   177 1
  197   188   177 1
  198   189   176 1
  199   190   176 1
  200   191   176 1
  201   192   175 1
  202   193   175 1
  203   194   175 1
  204   195   160 1
  205   196   160 1
  206   197   158 1
  207   198   158 1
  208   199   158 1
  209   200   157 1
  210   201   157 1
  211   202   157 1
  212   203   156 1
  213   204   156 1
  214   205   156 1
  215   206   155 1
  216   207   155 1
  217   208   155 1
  218   209   154 1
  219   210   154 1
  220   211   154 1
  221   212   141 1
  222   213   146 1
  223   214   145 1
  224   215   142 1
  225   216   142 1
  226   217   174 1
  227   218   173 1
  228   219   171 1
  229   220   170 1
  230   221   169 1
  231   222   140 1
  232   223   167 1
  233   224   166 1
  234   225   165 1
  235   226   163 1
  236   227   161 1
  237   228   139 1
  238   229   139 1
  239   230   153 1
  240   231   152 1
  241   232   150 1
  242   233   149 1
  243   234   148 1
  244   235   162 1
  245   65    153 1
  246   65    174 1
@<TRIPOS>SUBSTRUCTURE
      1 CLA               1 ****               0 ****  **** 
      2 LUT             138 ****               0 ****  **** 
