@<TRIPOS>MOLECULE
Cpptraj generated mol2 file.
  235   246     2     0     0
SMALL
USER_CHARGES


@<TRIPOS>ATOM
      1 CAA        78.6999   58.5600   35.9449 a2         1 CLA     -0.055900
      2 CAB        78.2947   61.8283   44.9149 c8         1 CLA     -0.148500
      3 CAC        71.2259   57.7498   43.8388 a2         1 CLA     -0.012600
      4 CAD        74.5799   55.5942   36.7239 ck         1 CLA      0.398800
      5 NA         77.5630   58.5809   39.2964 ns         1 CLA     -0.225500
      6 CBA        80.0308   58.8640   35.1636 a2         1 CLA     -0.135000
      7 CBB        78.4125   61.1330   46.0322 c0         1 CLA     -0.395200
      8 CBC        71.3645   56.3392   44.4212 a3         1 CLA     -0.037700
      9 CBD        76.1367   56.1294   36.5886 a1         1 CLA     -0.053900
     10 NB         77.2580   60.0532   41.7997 nm         1 CLA     -0.295700
     11 OBD        74.0393   54.7914   35.9919 o2         1 CLA     -0.494600
     12 CGA        80.9091   57.6094   34.7968 c4         1 CLA      0.827000
     13 CGD        77.0380   54.8884   36.6438 c4         1 CLA      0.655300
     14 ND         74.7534   57.7096   39.6227 nm         1 CLA     -0.291600
     15 CED        77.6941   53.0955   38.1957 a3         1 CLA      0.005400
     16 CHA        76.3189   57.1168   37.7220 cs         1 CLA     -0.123800
     17 CHB        79.2589   59.8797   40.3965 aa         1 CLA     -0.291900
     18 CHC        75.7657   60.4075   43.7781 aa         1 CLA     -0.090400
     19 CHD        72.8720   57.4122   41.2195 aa         1 CLA     -0.052000
     20 CMA        80.7724   57.3955   39.0507 a3         1 CLA     -0.230700
     21 CMB        80.5731   61.6087   42.6795 a3         1 CLA     -0.180800
     22 CMC        73.1650   59.7603   45.7074 a3         1 CLA     -0.134000
     23 CMD        71.5781   55.7692   38.8136 a3         1 CLA     -0.141100
     24 C1         82.5943   56.1169   35.7270 a2         1 CLA      0.023000
     25 C1A        77.5016   57.8642   38.0723 ac         1 CLA     -0.015100
     26 C1B        78.5455   60.4468   41.4972 cr         1 CLA      0.054700
     27 C1C        74.5950   59.6796   43.3856 cn         1 CLA     -0.005600
     28 C1D        73.4871   57.2141   39.9688 ap         1 CLA     -0.047300
     29 O1A        80.7827   56.8664   33.8545 o2         1 CLA     -0.610800
     30 O1D        77.8825   54.5069   35.7785 o2         1 CLA     -0.558200
     31 C2         83.5003   56.0619   36.9294 c8         1 CLA     -0.325100
     32 C2A        78.8136   57.8376   37.3059 a1         1 CLA      0.098600
     33 C2B        79.1557   61.1623   42.6037 cb         1 CLA      0.088500
     34 C2C        73.3453   59.3620   44.1863 cb         1 CLA      0.053700
     35 C2D        72.9818   56.3358   38.8879 cb         1 CLA      0.058900
     36 O2A        81.7750   57.3086   35.8611 o1         1 CLA     -0.437200
     37 O2D        76.7524   54.1524   37.7919 o1         1 CLA     -0.357600
     38 C3         83.6872   54.9225   37.6172 c5         1 CLA      0.031200
     39 C3A        79.8595   58.4149   38.3728 a1         1 CLA      0.166800
     40 C3B        78.1380   61.2529   43.5808 cb         1 CLA      0.035000
     41 C3C        72.5440   58.4856   43.4360 cb         1 CLA     -0.089900
     42 C3D        74.0775   56.2406   37.9327 cb         1 CLA     -0.035900
     43 C4         82.7720   54.2542   38.6309 a3         1 CLA     -0.053300
     44 C4A        78.8291   59.0177   39.4685 ac         1 CLA      0.001800
     45 C4B        76.9751   60.6035   43.0674 cn         1 CLA     -0.020900
     46 C4C        73.2963   58.2604   42.2102 cr         1 CLA     -0.044400
     47 C4D        75.1206   57.1136   38.4440 c6         1 CLA     -0.046000
     48 C5         85.0419   54.3523   37.4422 a2         1 CLA     -0.070400
     49 C6         86.1502   55.3455   37.8921 a2         1 CLA      0.043900
     50 C7         85.9561   55.4951   39.4540 a2         1 CLA     -0.150000
     51 C8         86.9124   56.5595   40.1526 a1         1 CLA      0.064200
     52 C9         88.3638   56.0157   40.0095 a3         1 CLA     -0.259300
     53 C10        86.6189   57.0752   41.5565 a2         1 CLA     -0.071900
     54 C11        85.3103   57.8236   41.7901 a2         1 CLA      0.014500
     55 C12        85.2100   58.8225   42.9348 a2         1 CLA     -0.112100
     56 C13        85.3743   58.2295   44.2795 a1         1 CLA      0.089200
     57 C14        84.2903   57.1988   44.5989 a3         1 CLA     -0.239100
     58 C15        85.4814   59.2030   45.5140 a2         1 CLA     -0.102200
     59 C16        84.2440   60.1052   45.8065 a2         1 CLA      0.023900
     60 C17        84.4039   60.8731   47.1216 a2         1 CLA     -0.105700
     61 C18        83.3154   61.9998   47.2685 a1         1 CLA      0.206800
     62 C19        81.9101   61.4123   47.4291 a3         1 CLA     -0.280100
     63 C20        83.7791   62.9410   48.3927 a3         1 CLA     -0.280100
     64 NC         74.5630   58.9923   42.2759 nx         1 CLA     -0.309200
     65 MG         76.0230   58.9323   40.6313 mg         1 CLA      0.895000
     66 HMD3       70.8824   56.6270   38.6251 dc         1 CLA      0.064300
     67 HMD2       71.4873   55.0092   38.0849 dc         1 CLA      0.064300
     68 HMD1       71.3387   55.4213   39.8538 dc         1 CLA      0.064300
     69 HMC3       74.0242   60.3592   46.0466 dc         1 CLA      0.052100
     70 HMC2       72.2201   60.2463   45.9351 dc         1 CLA      0.052100
     71 HMC1       73.2260   58.8246   46.1906 dc         1 CLA      0.052100
     72 HMB3       81.1010   60.6730   42.8718 dc         1 CLA      0.063600
     73 HMB2       80.7488   61.9312   41.6839 dc         1 CLA      0.063600
     74 HMB1       80.7992   62.4408   43.3759 dc         1 CLA      0.063600
     75 HMA3       81.4741   57.0217   38.3333 dc         1 CLA      0.058300
     76 HMA2       81.4354   57.8864   39.7834 dc         1 CLA      0.058300
     77 HMA1       80.1768   56.5989   39.6039 dc         1 CLA      0.058300
     78 HED3       77.5048   52.4557   39.1283 dc         1 CLA      0.079300
     79 HED2       77.7774   52.4913   37.3388 dc         1 CLA      0.079300
     80 HED1       78.6850   53.5557   38.3523 dc         1 CLA      0.079300
     81 HBC3       72.1598   56.4530   45.1606 dc         1 CLA      0.016300
     82 HBC2       70.4272   56.0056   44.8180 dc         1 CLA      0.016300
     83 HBC1       71.7012   55.6973   43.6238 dc         1 CLA      0.016300
     84 HBB2       78.5714   61.5947   47.0090 da         1 CLA      0.183000
     85 HBB1       78.3841   60.0294   45.9812 da         1 CLA      0.183000
     86 HBA2       79.8544   59.2902   34.2062 dc         1 CLA      0.029400
     87 HBA1       80.6000   59.5858   35.7232 dc         1 CLA      0.029400
     88 HAC2       70.7935   58.3325   44.6826 dc         1 CLA      0.029300
     89 HAC1       70.5353   57.7715   42.9908 dc         1 CLA      0.029300
     90 HAA2       78.0305   58.0194   35.3135 dc         1 CLA      0.028700
     91 HAA1       78.2206   59.5544   36.1361 dc         1 CLA      0.028700
     92 H203       83.6853   62.4054   49.2999 dc         1 CLA      0.065600
     93 H202       84.8098   63.2482   48.2002 dc         1 CLA      0.065600
     94 H201       83.1602   63.7735   48.3708 dc         1 CLA      0.065600
     95 H193       81.1408   62.1564   47.2355 dc         1 CLA      0.065600
     96 H192       81.7538   60.5541   46.7228 dc         1 CLA      0.065600
     97 H191       81.7071   61.1039   48.4182 dc         1 CLA      0.065600
     98 H172       84.2556   60.3421   48.0848 dc         1 CLA      0.027600
     99 H171       85.3823   61.3520   47.1395 dc         1 CLA      0.027600
    100 H162       84.1643   60.9070   45.0652 dc         1 CLA      0.002900
    101 H161       83.3686   59.5400   45.9153 dc         1 CLA      0.002900
    102 H152       85.6562   58.5936   46.3232 dc         1 CLA      0.029100
    103 H151       86.3230   59.8070   45.4850 dc         1 CLA      0.029100
    104 H143       83.3171   57.6774   44.3874 dc         1 CLA      0.063600
    105 H142       84.2647   56.3257   43.9327 dc         1 CLA      0.063600
    106 H141       84.3095   56.7069   45.5506 dc         1 CLA      0.063600
    107 H122       85.8818   59.6411   42.7227 dc         1 CLA      0.032500
    108 H121       84.2124   59.1943   42.8545 dc         1 CLA      0.032500
    109 H112       85.0046   58.2554   40.8818 dc         1 CLA      0.006600
    110 H111       84.5492   56.9282   41.8843 dc         1 CLA      0.006600
    111 H102       86.5211   56.1606   42.2220 dc         1 CLA      0.024100
    112 H101       87.4534   57.6797   41.8999 dc         1 CLA      0.024100
    113 HHD        71.9662   56.8976   41.4587 da         1 CLA      0.174300
    114 HHC        75.7977   60.8041   44.8147 da         1 CLA      0.136800
    115 HHB        80.2695   60.2312   40.1721 da         1 CLA      0.138300
    116 HBD        76.0515   56.6184   35.6341 dc         1 CLA      0.107700
    117 HAB        78.3259   62.9316   44.9770 da         1 CLA      0.155200
    118 H93        89.1153   56.6869   40.4496 dc         1 CLA      0.069500
    119 H92        88.3392   54.9347   40.2590 dc         1 CLA      0.069500
    120 H91        88.6743   56.0949   39.0005 dc         1 CLA      0.069500
    121 H8         86.9422   57.4880   39.5549 dc         1 CLA      0.029300
    122 H72        84.9811   55.8588   39.7006 dc         1 CLA      0.044400
    123 H71        86.1098   54.5219   39.8458 dc         1 CLA      0.044400
    124 H62        87.1336   54.8359   37.6679 dc         1 CLA      0.015600
    125 H61        86.1132   56.3319   37.3483 dc         1 CLA      0.015600
    126 H52        85.1030   53.3237   37.9083 dc         1 CLA      0.033200
    127 H51        85.2244   54.0897   36.3823 dc         1 CLA      0.033200
    128 H43        83.3726   54.0232   39.5250 dc         1 CLA      0.037000
    129 H42        81.9256   54.8096   38.9298 dc         1 CLA      0.037000
    130 H41        82.3465   53.3360   38.1821 dc         1 CLA      0.037000
    131 H3A        80.4851   59.1370   37.9318 dc         1 CLA      0.041100
    132 H2A        78.9722   56.7757   37.0991 dc         1 CLA      0.083100
    133 H2         83.7306   56.9984   37.4640 da         1 CLA      0.180900
    134 H18        83.2710   62.6030   46.3353 dc         1 CLA     -0.003900
    135 H13        86.2969   57.7068   44.2339 dc         1 CLA      0.019700
    136 H12        82.1388   55.1404   35.6619 dc         1 CLA      0.120400
    137 H11        83.2346   56.2512   34.8645 dc         1 CLA      0.120400
    138 C1         68.2536   61.8672   50.4745 Z1         2 LUT      0.509236
    139 C2         67.1934   61.5814   51.4620 Z2         2 LUT     -0.434695
    140 C3         66.0791   62.7474   51.6115 Z3         2 LUT      0.437453
    141 O3         66.1589   63.2355   52.9407 S1         2 LUT     -0.547129
    142 C4         66.3237   63.9572   50.7312 Z4         2 LUT     -0.468603
    143 C5         66.8481   63.5531   49.3768 Z5         2 LUT      0.279246
    144 C6         67.7545   62.5682   49.2142 Z6         2 LUT     -0.305473
    145 C7         68.1554   62.0195   47.8736 Z7         2 LUT      0.069402
    146 C8         69.3289   62.0279   47.2660 Z8         2 LUT     -0.191631
    147 C9         69.7344   61.7908   45.9228 Z9         2 LUT      0.196698
    148 C10        70.8089   62.4761   45.3655 Y1         2 LUT     -0.208611
    149 C11        71.3842   62.2948   44.0404 Y2         2 LUT      0.030784
    150 C12        72.4863   63.0643   43.6547 Y3         2 LUT     -0.220316
    151 C13        73.4238   62.9133   42.5235 Y4         2 LUT      0.215937
    152 C14        74.5320   63.6727   42.5359 Y5         2 LUT     -0.185793
    153 C15        75.6199   63.8523   41.6192 Y6         2 LUT     -0.057835
    154 C16        68.9823   60.6040   50.1776 Y7         2 LUT     -0.405615
    155 C17        69.3089   62.7341   51.2099 Y7         2 LUT     -0.405615
    156 C18        66.3552   64.4288   48.2589 Y9         2 LUT     -0.369639
    157 C19        68.9182   60.7563   45.1745 W1         2 LUT     -0.333362
    158 C20        72.8366   62.1457   41.4023 W2         2 LUT     -0.323439
    159 C21        87.4963   65.4574   35.8529 Z1         2 LUT      0.406104
    160 C22        88.0970   65.1974   34.5494 Z2         2 LUT     -0.404965
    161 C23        87.9804   66.2778   33.4313 Z3         2 LUT      0.391255
    162 O23        88.5911   65.6047   32.3302 S1         2 LUT     -0.528210
    163 C24        86.5405   66.8165   33.3591 W6         2 LUT     -0.258361
    164 C25        85.6120   66.6243   34.3221 Z5         2 LUT      0.133546
    165 C26        85.9268   65.8365   35.6886 W8         2 LUT     -0.147008
    166 C27        85.2502   66.3511   36.8721 Z7         2 LUT      0.023843
    167 C28        83.9520   66.1329   37.1947 Z8         2 LUT     -0.216987
    168 C29        83.3563   66.3717   38.5528 Z9         2 LUT      0.206524
    169 C30        82.1122   65.8204   38.7918 Y1         2 LUT     -0.215556
    170 C31        81.1492   65.9824   39.8770 Y2         2 LUT      0.025142
    171 C32        79.9953   65.2552   39.9203 Y3         2 LUT     -0.212209
    172 C33        78.9557   65.2843   40.9525 Y4         2 LUT      0.240937
    173 C34        77.8716   64.5522   40.7937 Y5         2 LUT     -0.218862
    174 C35        76.8064   64.4272   41.8042 Y6         2 LUT     -0.023547
    175 C36        88.4291   66.3970   36.7075 Y7         2 LUT     -0.393485
    176 C37        87.5571   64.0005   36.5163 Y7         2 LUT     -0.393485
    177 C38        84.2622   67.3780   34.1240 Y9         2 LUT     -0.387526
    178 C39        83.9796   67.3207   39.5366 W1         2 LUT     -0.322618
    179 C40        79.2721   65.9474   42.2619 W2         2 LUT     -0.358472
    180 H403       79.8186   66.8583   42.2480 R7         2 LUT      0.097720
    181 H402       78.4096   66.3363   42.8409 R7         2 LUT      0.097720
    182 H401       79.7443   65.2945   42.9013 R7         2 LUT      0.097720
    183 H393       83.5088   67.3801   40.5218 R4         2 LUT      0.082505
    184 H392       85.0527   67.0957   39.7858 R4         2 LUT      0.082505
    185 H391       84.0168   68.2936   39.0569 R4         2 LUT      0.082505
    186 H383       83.6385   66.7618   33.4544 R1         2 LUT      0.104030
    187 H382       83.7726   67.6329   35.0742 R1         2 LUT      0.104030
    188 H381       84.3041   68.3188   33.5802 R1         2 LUT      0.104030
    189 H373       87.2130   64.0883   37.5296 T4         2 LUT      0.089537
    190 H372       86.8896   63.3200   36.0283 T4         2 LUT      0.089537
    191 H371       88.5515   63.5827   36.7132 T4         2 LUT      0.089537
    192 H363       89.4192   66.0427   36.8891 T4         2 LUT      0.089537
    193 H362       88.4367   67.3569   36.2347 T4         2 LUT      0.089537
    194 H361       88.0160   66.4734   37.7448 T4         2 LUT      0.089537
    195 H222       89.1751   65.0247   34.6891 U2         2 LUT      0.127376
    196 H221       87.7384   64.2851   34.1323 U2         2 LUT      0.127376
    197 H203       72.8398   61.1190   41.5572 R7         2 LUT      0.087068
    198 H202       71.8086   62.5518   41.2162 R7         2 LUT      0.087068
    199 H201       73.3859   62.2315   40.4734 R7         2 LUT      0.087068
    200 H193       67.9605   61.0636   44.7980 R4         2 LUT      0.089716
    201 H192       69.2981   60.2288   44.2430 R4         2 LUT      0.089716
    202 H191       68.6948   59.9561   45.8781 R4         2 LUT      0.089716
    203 H183       65.3326   64.1942   47.9011 R1         2 LUT      0.094572
    204 H182       66.2034   65.4885   48.6118 R1         2 LUT      0.094572
    205 H181       67.0024   64.3700   47.4318 R1         2 LUT      0.094572
    206 H173       70.0745   63.0897   50.4864 T4         2 LUT      0.093752
    207 H172       68.9903   63.5901   51.7556 T4         2 LUT      0.093752
    208 H171       69.7200   62.0855   51.9711 T4         2 LUT      0.093752
    209 H163       68.3607   59.9196   49.5643 T4         2 LUT      0.093752
    210 H162       69.9426   60.6194   49.5486 T4         2 LUT      0.093752
    211 H161       69.1340   60.0916   51.1613 T4         2 LUT      0.093752
    212 HO3        65.8281   62.6049   53.5754 Q1         2 LUT      0.300121
    213 H8         70.1227   62.5670   47.7468 U7         2 LUT      0.080784
    214 H7         67.3455   61.7850   47.1746 U6         2 LUT      0.042190
    215 H42        65.2521   64.3535   50.6499 U5         2 LUT      0.145166
    216 H41        66.9498   64.7561   51.0980 U5         2 LUT      0.145166
    217 H35        76.9247   65.0217   42.7385 T3         2 LUT      0.077919
    218 H34        77.7350   64.0204   39.8231 T2         2 LUT      0.073626
    219 H32        79.8866   64.5478   39.0763 T1         2 LUT      0.092510
    220 H31        81.3645   66.6262   40.7033 U9         2 LUT      0.070048
    221 H30        81.8514   65.2484   37.9041 U8         2 LUT      0.085442
    222 H3         65.0396   62.3390   51.5053 U3         2 LUT     -0.031596
    223 H28        83.3188   65.6376   36.4521 U7         2 LUT      0.084728
    224 H27        85.8034   66.8702   37.5887 U6         2 LUT      0.087291
    225 H26        85.5387   64.8727   35.4309 Q6         2 LUT      0.075325
    226 H24        86.1931   67.3393   32.4985 Q5         2 LUT      0.094482
    227 H23        88.6441   67.1080   33.8200 U3         2 LUT     -0.024869
    228 H22        66.6743   60.6731   51.1399 U2         2 LUT      0.127376
    229 H21        67.6915   61.3904   52.4568 U2         2 LUT      0.127376
    230 H15        75.3784   63.2237   40.7162 T3         2 LUT      0.093200
    231 H14        74.5375   64.2532   43.4567 T2         2 LUT      0.068865
    232 H12        72.7886   63.8540   44.4474 T1         2 LUT      0.095507
    233 H11        71.0200   61.4026   43.5111 U9         2 LUT      0.068930
    234 H10        71.2357   63.2651   45.9014 U8         2 LUT      0.083911
    235 H1         88.0041   65.1760   31.6643 Q1         2 LUT      0.297311
@<TRIPOS>BOND
    1     6     1 1
    2     7     2 1
    3     8     3 1
    4     9     4 1
    5    11     4 1
    6    12     6 1
    7    13     9 1
    8    16     9 1
    9    25     5 1
   10    25    16 1
   11    26    10 1
   12    26    17 1
   13    27    18 1
   14    28    14 1
   15    28    19 1
   16    29    12 1
   17    30    13 1
   18    31    24 1
   19    32     1 1
   20    32    25 1
   21    33    21 1
   22    33    26 1
   23    34    22 1
   24    34    27 1
   25    35    23 1
   26    35    28 1
   27    36    12 1
   28    36    24 1
   29    37    13 1
   30    37    15 1
   31    38    31 1
   32    39    20 1
   33    39    32 1
   34    40     2 1
   35    40    33 1
   36    41     3 1
   37    41    34 1
   38    42     4 1
   39    42    35 1
   40    43    38 1
   41    44     5 1
   42    44    17 1
   43    44    39 1
   44    45    10 1
   45    45    18 1
   46    45    40 1
   47    46    19 1
   48    46    41 1
   49    47    14 1
   50    47    16 1
   51    47    42 1
   52    48    38 1
   53    49    48 1
   54    50    49 1
   55    51    50 1
   56    52    51 1
   57    53    51 1
   58    54    53 1
   59    55    54 1
   60    56    55 1
   61    57    56 1
   62    58    56 1
   63    59    58 1
   64    60    59 1
   65    61    60 1
   66    62    61 1
   67    63    61 1
   68    64    27 1
   69    64    46 1
   70    65     5 1
   71    65    10 1
   72    65    64 1
   73    65    14 1
   74    66    23 1
   75    67    23 1
   76    68    23 1
   77    69    22 1
   78    70    22 1
   79    71    22 1
   80    72    21 1
   81    73    21 1
   82    74    21 1
   83    75    20 1
   84    76    20 1
   85    77    20 1
   86    78    15 1
   87    79    15 1
   88    80    15 1
   89    81     8 1
   90    82     8 1
   91    83     8 1
   92    84     7 1
   93    85     7 1
   94    86     6 1
   95    87     6 1
   96    88     3 1
   97    89     3 1
   98    90     1 1
   99    91     1 1
  100    92    63 1
  101    93    63 1
  102    94    63 1
  103    95    62 1
  104    96    62 1
  105    97    62 1
  106    98    60 1
  107    99    60 1
  108   100    59 1
  109   101    59 1
  110   102    58 1
  111   103    58 1
  112   104    57 1
  113   105    57 1
  114   106    57 1
  115   107    55 1
  116   108    55 1
  117   109    54 1
  118   110    54 1
  119   111    53 1
  120   112    53 1
  121   113    19 1
  122   114    18 1
  123   115    17 1
  124   116     9 1
  125   117     2 1
  126   118    52 1
  127   119    52 1
  128   120    52 1
  129   121    51 1
  130   122    50 1
  131   123    50 1
  132   124    49 1
  133   125    49 1
  134   126    48 1
  135   127    48 1
  136   128    43 1
  137   129    43 1
  138   130    43 1
  139   131    39 1
  140   132    32 1
  141   133    31 1
  142   134    61 1
  143   135    56 1
  144   136    24 1
  145   137    24 1
  146   139   138 1
  147   140   139 1
  148   141   140 1
  149   142   140 1
  150   143   142 1
  151   144   138 1
  152   144   143 1
  153   145   144 1
  154   146   145 1
  155   147   146 1
  156   148   147 1
  157   149   148 1
  158   150   149 1
  159   151   150 1
  160   152   151 1
  161   153   152 1
  162   154   138 1
  163   155   138 1
  164   156   143 1
  165   157   147 1
  166   158   151 1
  167   160   159 1
  168   161   160 1
  169   162   161 1
  170   163   161 1
  171   164   163 1
  172   165   159 1
  173   165   164 1
  174   166   165 1
  175   167   166 1
  176   168   167 1
  177   169   168 1
  178   170   169 1
  179   171   170 1
  180   172   171 1
  181   173   172 1
  182   174   153 1
  183   174   173 1
  184   175   159 1
  185   176   159 1
  186   177   164 1
  187   178   168 1
  188   179   172 1
  189   180   179 1
  190   181   179 1
  191   182   179 1
  192   183   178 1
  193   184   178 1
  194   185   178 1
  195   186   177 1
  196   187   177 1
  197   188   177 1
  198   189   176 1
  199   190   176 1
  200   191   176 1
  201   192   175 1
  202   193   175 1
  203   194   175 1
  204   195   160 1
  205   196   160 1
  206   197   158 1
  207   198   158 1
  208   199   158 1
  209   200   157 1
  210   201   157 1
  211   202   157 1
  212   203   156 1
  213   204   156 1
  214   205   156 1
  215   206   155 1
  216   207   155 1
  217   208   155 1
  218   209   154 1
  219   210   154 1
  220   211   154 1
  221   212   141 1
  222   213   146 1
  223   214   145 1
  224   215   142 1
  225   216   142 1
  226   217   174 1
  227   218   173 1
  228   219   171 1
  229   220   170 1
  230   221   169 1
  231   222   140 1
  232   223   167 1
  233   224   166 1
  234   225   165 1
  235   226   163 1
  236   227   161 1
  237   228   139 1
  238   229   139 1
  239   230   153 1
  240   231   152 1
  241   232   150 1
  242   233   149 1
  243   234   148 1
  244   235   162 1
  245   65    153 1
  246   65    174 1
@<TRIPOS>SUBSTRUCTURE
      1 CLA               1 ****               0 ****  **** 
      2 LUT             138 ****               0 ****  **** 
