@<TRIPOS>MOLECULE
Cpptraj generated mol2 file.
  235   246     2     0     0
SMALL
USER_CHARGES


@<TRIPOS>ATOM
      1 CAA        79.6719   58.7869   34.3073 a2         1 CLA     -0.055900
      2 CAB        80.0477   62.4347   43.1427 c8         1 CLA     -0.148500
      3 CAC        72.9579   58.5069   43.1043 a2         1 CLA     -0.012600
      4 CAD        75.3801   56.1247   35.5596 ck         1 CLA      0.398800
      5 NA         78.7615   58.9510   37.6097 ns         1 CLA     -0.225500
      6 CBA        80.8950   58.5851   33.3459 a2         1 CLA     -0.135000
      7 CBB        80.9251   63.4640   43.4048 c0         1 CLA     -0.395200
      8 CBC        73.1378   56.9923   43.2709 a3         1 CLA     -0.037700
      9 CBD        76.8174   56.6623   35.1554 a1         1 CLA     -0.053900
     10 NB         78.7027   60.4483   40.2757 nm         1 CLA     -0.295700
     11 OBD        74.7081   55.4044   34.8863 o2         1 CLA     -0.494600
     12 CGA        81.1649   57.1715   32.8568 c4         1 CLA      0.827000
     13 CGD        77.7646   55.4911   35.0278 c4         1 CLA      0.655300
     14 ND         75.8849   58.1496   38.3459 nm         1 CLA     -0.291600
     15 CED        78.8717   53.6754   36.4598 a3         1 CLA      0.005400
     16 CHA        77.2130   57.6169   36.2713 cs         1 CLA     -0.123800
     17 CHB        80.6146   60.1431   38.7618 aa         1 CLA     -0.291900
     18 CHC        77.3152   61.1215   42.1210 aa         1 CLA     -0.090400
     19 CHD        74.0994   58.0771   40.0587 aa         1 CLA     -0.052000
     20 CMA        81.9026   57.7817   37.1496 a3         1 CLA     -0.230700
     21 CMB        82.3209   61.5768   40.9984 a3         1 CLA     -0.180800
     22 CMC        75.0659   60.8385   44.3834 a3         1 CLA     -0.134000
     23 CMD        72.8697   55.9508   38.0500 a3         1 CLA     -0.141100
     24 C1         81.9412   55.0660   33.6897 a2         1 CLA      0.023000
     25 C1A        78.5108   58.1568   36.5028 ac         1 CLA     -0.015100
     26 C1B        80.0690   60.5535   39.9578 cr         1 CLA      0.054700
     27 C1C        76.1287   60.3644   41.9210 cn         1 CLA     -0.005600
     28 C1D        74.6809   57.6480   38.8521 ap         1 CLA     -0.047300
     29 O1A        80.8352   56.6147   31.8461 o2         1 CLA     -0.610800
     30 O1D        78.3003   55.0880   33.9712 o2         1 CLA     -0.558200
     31 C2         82.7880   54.6242   34.8002 c8         1 CLA     -0.325100
     32 C2A        79.7842   58.1128   35.7034 a1         1 CLA      0.098600
     33 C2B        80.8255   61.3094   40.9368 cb         1 CLA      0.088500
     34 C2C        75.0427   60.1630   42.9688 cb         1 CLA      0.053700
     35 C2D        74.1327   56.7321   37.8746 cb         1 CLA      0.058900
     36 O2A        81.8419   56.4945   33.8205 o1         1 CLA     -0.437200
     37 O2D        78.0199   54.9047   36.2790 o1         1 CLA     -0.357600
     38 C3         84.0290   54.0755   34.6478 c5         1 CLA      0.031200
     39 C3A        80.8814   58.7538   36.6150 a1         1 CLA      0.166800
     40 C3B        79.8272   61.6846   41.8859 cb         1 CLA      0.035000
     41 C3C        74.1580   59.1896   42.4390 cb         1 CLA     -0.089900
     42 C3D        75.0645   56.7094   36.7965 cb         1 CLA     -0.035900
     43 C4         84.1712   52.5860   34.3934 a3         1 CLA     -0.053300
     44 C4A        80.0648   59.3129   37.7269 ac         1 CLA      0.001800
     45 C4B        78.5308   61.0885   41.4720 cn         1 CLA     -0.020900
     46 C4C        74.6561   58.9256   41.0499 cr         1 CLA     -0.044400
     47 C4D        76.1273   57.5591   37.1475 c6         1 CLA     -0.046000
     48 C5         85.2773   54.9997   34.8649 a2         1 CLA     -0.070400
     49 C6         85.3446   55.3597   36.3546 a2         1 CLA      0.043900
     50 C7         86.6173   55.9519   36.8357 a2         1 CLA     -0.150000
     51 C8         86.7202   56.4939   38.2796 a1         1 CLA      0.064200
     52 C9         85.9836   57.8161   38.4658 a3         1 CLA     -0.259300
     53 C10        88.2043   56.6033   38.6833 a2         1 CLA     -0.071900
     54 C11        88.5347   57.3823   39.9684 a2         1 CLA      0.014500
     55 C12        88.0395   56.5221   41.1615 a2         1 CLA     -0.112100
     56 C13        88.5662   56.9110   42.5852 a1         1 CLA      0.089200
     57 C14        88.5410   55.7452   43.6351 a3         1 CLA     -0.239100
     58 C15        87.9890   58.3073   43.1310 a2         1 CLA     -0.102200
     59 C16        86.5769   58.2466   43.7447 a2         1 CLA      0.023900
     60 C17        86.0600   59.5708   44.3854 a2         1 CLA     -0.105700
     61 C18        84.5093   59.7553   44.5028 a1         1 CLA      0.206800
     62 C19        83.8937   58.9679   45.6566 a3         1 CLA     -0.280100
     63 C20        84.1370   61.3533   44.6914 a3         1 CLA     -0.280100
     64 NC         75.9191   59.5107   40.8472 nx         1 CLA     -0.309200
     65 MG         77.2080   59.3966   39.1862 mg         1 CLA      0.895000
     66 HMD3       72.7990   55.5362   39.0447 dc         1 CLA      0.064300
     67 HMD2       71.9405   56.4303   37.7677 dc         1 CLA      0.064300
     68 HMD1       73.0312   55.0905   37.4362 dc         1 CLA      0.064300
     69 HMC3       75.6433   60.1394   44.9618 dc         1 CLA      0.052100
     70 HMC2       75.5205   61.7796   44.3801 dc         1 CLA      0.052100
     71 HMC1       74.0716   60.9311   44.7770 dc         1 CLA      0.052100
     72 HMB3       82.7775   61.3331   41.9240 dc         1 CLA      0.063600
     73 HMB2       82.7890   61.0088   40.1856 dc         1 CLA      0.063600
     74 HMB1       82.5359   62.6881   40.7321 dc         1 CLA      0.063600
     75 HMA3       82.1917   57.0785   36.3260 dc         1 CLA      0.058300
     76 HMA2       82.8131   58.3097   37.5761 dc         1 CLA      0.058300
     77 HMA1       81.5856   57.2111   37.9787 dc         1 CLA      0.058300
     78 HED3       78.2843   52.8996   35.9849 dc         1 CLA      0.079300
     79 HED2       79.8001   53.8913   35.9288 dc         1 CLA      0.079300
     80 HED1       78.9623   53.4953   37.5343 dc         1 CLA      0.079300
     81 HBC3       73.4649   56.4719   42.3842 dc         1 CLA      0.016300
     82 HBC2       73.9789   56.8396   44.0119 dc         1 CLA      0.016300
     83 HBC1       72.2540   56.5979   43.6401 dc         1 CLA      0.016300
     84 HBB2       80.9691   63.9963   44.3826 da         1 CLA      0.183000
     85 HBB1       81.5609   63.9303   42.6618 da         1 CLA      0.183000
     86 HBA2       80.5770   59.1843   32.5219 dc         1 CLA      0.029400
     87 HBA1       81.8285   58.9902   33.6890 dc         1 CLA      0.029400
     88 HAC2       72.7201   58.8603   44.1187 dc         1 CLA      0.029300
     89 HAC1       72.0275   58.6484   42.5026 dc         1 CLA      0.029300
     90 HAA2       78.8409   58.3618   33.7951 dc         1 CLA      0.028700
     91 HAA1       79.5618   59.8580   34.4989 dc         1 CLA      0.028700
     92 H203       84.3294   61.7786   43.7274 dc         1 CLA      0.065600
     93 H202       83.1715   61.7089   44.8647 dc         1 CLA      0.065600
     94 H201       84.8394   61.7406   45.4173 dc         1 CLA      0.065600
     95 H193       84.2936   57.9638   45.4626 dc         1 CLA      0.065600
     96 H192       84.0819   59.5253   46.6353 dc         1 CLA      0.065600
     97 H191       82.7834   58.9728   45.4600 dc         1 CLA      0.065600
     98 H172       86.5754   59.6436   45.3517 dc         1 CLA      0.027600
     99 H171       86.3578   60.3901   43.7099 dc         1 CLA      0.027600
    100 H162       85.8908   57.9860   42.9262 dc         1 CLA      0.002900
    101 H161       86.6251   57.5387   44.5947 dc         1 CLA      0.002900
    102 H152       88.7073   58.8780   43.7589 dc         1 CLA      0.029100
    103 H151       87.9622   58.9949   42.2317 dc         1 CLA      0.029100
    104 H143       89.2047   54.9202   43.4288 dc         1 CLA      0.063600
    105 H142       88.7193   55.9667   44.6933 dc         1 CLA      0.063600
    106 H141       87.6248   55.2082   43.6699 dc         1 CLA      0.063600
    107 H122       86.9360   56.5049   41.3445 dc         1 CLA      0.032500
    108 H121       88.3710   55.4709   41.0738 dc         1 CLA      0.032500
    109 H112       89.6499   57.3958   40.0516 dc         1 CLA      0.006600
    110 H111       88.2235   58.4050   39.9285 dc         1 CLA      0.006600
    111 H102       88.6318   55.5816   38.7163 dc         1 CLA      0.024100
    112 H101       88.6170   57.1671   37.8671 dc         1 CLA      0.024100
    113 HHD        73.1449   57.5133   40.2937 da         1 CLA      0.174300
    114 HHC        77.3789   61.5260   43.1364 da         1 CLA      0.136800
    115 HHB        81.7032   60.3005   38.6419 da         1 CLA      0.138300
    116 HBD        76.7434   57.0987   34.1606 dc         1 CLA      0.107700
    117 HAB        79.3119   62.2527   43.8752 da         1 CLA      0.155200
    118 H93        84.9364   57.5477   38.1327 dc         1 CLA      0.069500
    119 H92        86.0063   58.2334   39.4845 dc         1 CLA      0.069500
    120 H91        86.3126   58.6338   37.8874 dc         1 CLA      0.069500
    121 H8         86.2616   55.7478   38.9585 dc         1 CLA      0.029300
    122 H72        87.3213   55.1381   36.7878 dc         1 CLA      0.044400
    123 H71        86.9954   56.7294   36.1483 dc         1 CLA      0.044400
    124 H62        84.5257   56.1357   36.4623 dc         1 CLA      0.015600
    125 H61        85.1339   54.5246   36.9633 dc         1 CLA      0.015600
    126 H52        86.2336   54.5960   34.5348 dc         1 CLA      0.033200
    127 H51        85.0395   55.8928   34.2317 dc         1 CLA      0.033200
    128 H43        84.4498   51.9380   35.2504 dc         1 CLA      0.037000
    129 H42        83.1844   52.2644   34.0833 dc         1 CLA      0.037000
    130 H41        84.8511   52.4361   33.6204 dc         1 CLA      0.037000
    131 H3A        81.3808   59.6007   36.0920 dc         1 CLA      0.041100
    132 H2A        80.0786   57.0485   35.5226 dc         1 CLA      0.083100
    133 H2         82.3999   54.7454   35.8634 da         1 CLA      0.180900
    134 H18        84.0632   59.4281   43.5476 dc         1 CLA     -0.003900
    135 H13        89.5897   57.1156   42.5348 dc         1 CLA      0.019700
    136 H12        80.9812   54.5386   33.6387 dc         1 CLA      0.120400
    137 H11        82.5140   54.7138   32.8035 dc         1 CLA      0.120400
    138 C1         70.8223   62.2862   50.7813 Z1         2 LUT      0.509236
    139 C2         69.4993   61.7018   51.3203 Z2         2 LUT     -0.434695
    140 C3         68.4765   62.7679   51.7501 Z3         2 LUT      0.437453
    141 O3         68.4786   62.8525   53.1221 S1         2 LUT     -0.547129
    142 C4         68.7870   64.1684   51.1214 Z4         2 LUT     -0.468603
    143 C5         69.4048   64.0505   49.7679 Z5         2 LUT      0.279246
    144 C6         70.4248   63.1771   49.5984 Z6         2 LUT     -0.305473
    145 C7         70.8035   62.7409   48.2740 Z7         2 LUT      0.069402
    146 C8         71.4447   63.4719   47.3353 Z8         2 LUT     -0.191631
    147 C9         71.9057   63.1215   45.9338 Z9         2 LUT      0.196698
    148 C10        72.8204   63.9291   45.2662 Y1         2 LUT     -0.208611
    149 C11        73.4404   63.8492   43.9612 Y2         2 LUT      0.030784
    150 C12        74.6724   64.4083   43.6997 Y3         2 LUT     -0.220316
    151 C13        75.4393   64.3988   42.4404 Y4         2 LUT      0.215937
    152 C14        76.7542   64.7789   42.4918 Y5         2 LUT     -0.185793
    153 C15        77.7391   64.7372   41.4734 Y6         2 LUT     -0.057835
    154 C16        71.7356   61.1158   50.2952 Y7         2 LUT     -0.405615
    155 C17        71.4926   63.0032   52.0212 Y7         2 LUT     -0.405615
    156 C18        68.8270   64.9067   48.6435 Y9         2 LUT     -0.369639
    157 C19        71.3715   61.8738   45.2923 W1         2 LUT     -0.333362
    158 C20        74.9016   63.7174   41.2329 W2         2 LUT     -0.323439
    159 C21        88.7405   65.7952   34.8654 Z1         2 LUT      0.406104
    160 C22        89.4676   64.8848   33.7491 Z2         2 LUT     -0.404965
    161 C23        89.5554   65.4655   32.3464 Z3         2 LUT      0.391255
    162 O23        89.8918   64.3058   31.4407 S1         2 LUT     -0.528210
    163 C24        88.3539   66.3362   31.9706 W6         2 LUT     -0.258361
    164 C25        87.3230   66.6442   32.8270 Z5         2 LUT      0.133546
    165 C26        87.2834   66.2180   34.3170 W8         2 LUT     -0.147008
    166 C27        86.4184   66.9471   35.3183 Z7         2 LUT      0.023843
    167 C28        85.2822   66.4814   35.9579 Z8         2 LUT     -0.216987
    168 C29        84.5462   66.9712   37.0832 Z9         2 LUT      0.206524
    169 C30        83.4562   66.2295   37.5503 Y1         2 LUT     -0.215556
    170 C31        82.8309   66.4508   38.7553 Y2         2 LUT      0.025142
    171 C32        81.8420   65.7172   39.2974 Y3         2 LUT     -0.212209
    172 C33        81.1434   65.9078   40.5566 Y4         2 LUT      0.240937
    173 C34        79.9976   65.2160   40.7593 Y5         2 LUT     -0.218862
    174 C35        78.9375   65.3193   41.6963 Y6         2 LUT     -0.023547
    175 C36        89.7929   66.9201   35.0254 Y7         2 LUT     -0.393485
    176 C37        88.8928   65.1167   36.2813 Y7         2 LUT     -0.393485
    177 C38        86.1075   67.4593   32.2502 Y9         2 LUT     -0.387526
    178 C39        85.2434   68.0742   37.8853 W1         2 LUT     -0.322618
    179 C40        81.8120   66.7011   41.5830 W2         2 LUT     -0.358472
    180 H403       81.2903   66.3929   42.4507 R7         2 LUT      0.097720
    181 H402       82.8825   66.4309   41.7245 R7         2 LUT      0.097720
    182 H401       81.7230   67.7149   41.4286 R7         2 LUT      0.097720
    183 H393       85.4107   68.9311   37.2835 R4         2 LUT      0.082505
    184 H392       84.6543   68.4866   38.7112 R4         2 LUT      0.082505
    185 H391       86.1272   67.6665   38.3131 R4         2 LUT      0.082505
    186 H383       85.2450   66.8395   32.1859 R1         2 LUT      0.104030
    187 H382       85.7578   68.2425   32.8915 R1         2 LUT      0.104030
    188 H381       86.2372   67.8722   31.2438 R1         2 LUT      0.104030
    189 H373       89.8722   64.8845   36.6673 T4         2 LUT      0.089537
    190 H372       88.4557   65.7303   37.0208 T4         2 LUT      0.089537
    191 H371       88.3947   64.1267   36.3075 T4         2 LUT      0.089537
    192 H363       89.9311   67.5930   34.1235 T4         2 LUT      0.089537
    193 H362       89.4391   67.6707   35.8181 T4         2 LUT      0.089537
    194 H361       90.8292   66.5324   35.2389 T4         2 LUT      0.089537
    195 H222       90.4859   64.5946   34.0841 U2         2 LUT      0.127376
    196 H221       88.7702   64.0436   33.6031 U2         2 LUT      0.127376
    197 H203       75.4016   63.9021   40.3212 R7         2 LUT      0.087068
    198 H202       74.8098   62.7003   41.4528 R7         2 LUT      0.087068
    199 H201       73.9052   64.0875   41.1282 R7         2 LUT      0.087068
    200 H193       70.3813   61.7007   45.6605 R4         2 LUT      0.089716
    201 H192       71.2197   62.0021   44.2235 R4         2 LUT      0.089716
    202 H191       72.0013   60.9932   45.5413 R4         2 LUT      0.089716
    203 H183       68.4601   64.2573   47.8507 R1         2 LUT      0.094572
    204 H182       67.9591   65.4684   48.9787 R1         2 LUT      0.094572
    205 H181       69.6219   65.5487   48.2505 R1         2 LUT      0.094572
    206 H173       71.1084   63.9384   52.4969 T4         2 LUT      0.093752
    207 H172       71.6334   62.3038   52.8298 T4         2 LUT      0.093752
    208 H171       72.5573   63.2480   51.6822 T4         2 LUT      0.093752
    209 H163       72.8083   61.4899   50.0618 T4         2 LUT      0.093752
    210 H162       72.1123   60.5037   51.1165 T4         2 LUT      0.093752
    211 H161       71.3694   60.4758   49.4370 T4         2 LUT      0.093752
    212 HO3        67.6011   63.1667   53.4441 Q1         2 LUT      0.300121
    213 H8         71.8887   64.3653   47.6750 U7         2 LUT      0.080784
    214 H7         70.5670   61.7437   48.0319 U6         2 LUT      0.042190
    215 H42        67.8075   64.5694   51.0329 U5         2 LUT      0.145166
    216 H41        69.3945   64.7963   51.8157 U5         2 LUT      0.145166
    217 H35        79.1081   65.9265   42.5565 T3         2 LUT      0.077919
    218 H34        79.7020   64.5390   39.9196 T2         2 LUT      0.073626
    219 H32        81.4011   64.9554   38.6144 T1         2 LUT      0.092510
    220 H31        83.1004   67.3333   39.3630 U9         2 LUT      0.070048
    221 H30        83.1390   65.3295   36.9436 U8         2 LUT      0.085442
    222 H3         67.5070   62.3832   51.3917 U3         2 LUT     -0.031596
    223 H28        85.1124   65.3842   35.8171 U7         2 LUT      0.084728
    224 H27        86.8804   67.9173   35.5986 U6         2 LUT      0.087291
    225 H26        86.7513   65.2396   34.1917 Q6         2 LUT      0.075325
    226 H24        88.2779   66.8006   30.9669 Q5         2 LUT      0.094482
    227 H23        90.4471   66.1259   32.3391 U3         2 LUT     -0.024869
    228 H22        68.9297   61.1775   50.5645 U2         2 LUT      0.127376
    229 H21        69.8361   61.1109   52.2453 U2         2 LUT      0.127376
    230 H15        77.6506   64.1892   40.4996 T3         2 LUT      0.093200
    231 H14        77.1929   65.1274   43.4477 T2         2 LUT      0.068865
    232 H12        75.1887   64.7753   44.5711 T1         2 LUT      0.095507
    233 H11        72.9599   63.2501   43.1953 U9         2 LUT      0.068930
    234 H10        73.3416   64.5681   45.9655 U8         2 LUT      0.083911
    235 H1         89.9905   64.5084   30.5163 Q1         2 LUT      0.297311
@<TRIPOS>BOND
    1     6     1 1
    2     7     2 1
    3     8     3 1
    4     9     4 1
    5    11     4 1
    6    12     6 1
    7    13     9 1
    8    16     9 1
    9    25     5 1
   10    25    16 1
   11    26    10 1
   12    26    17 1
   13    27    18 1
   14    28    14 1
   15    28    19 1
   16    29    12 1
   17    30    13 1
   18    31    24 1
   19    32     1 1
   20    32    25 1
   21    33    21 1
   22    33    26 1
   23    34    22 1
   24    34    27 1
   25    35    23 1
   26    35    28 1
   27    36    12 1
   28    36    24 1
   29    37    13 1
   30    37    15 1
   31    38    31 1
   32    39    20 1
   33    39    32 1
   34    40     2 1
   35    40    33 1
   36    41     3 1
   37    41    34 1
   38    42     4 1
   39    42    35 1
   40    43    38 1
   41    44     5 1
   42    44    17 1
   43    44    39 1
   44    45    10 1
   45    45    18 1
   46    45    40 1
   47    46    19 1
   48    46    41 1
   49    47    14 1
   50    47    16 1
   51    47    42 1
   52    48    38 1
   53    49    48 1
   54    50    49 1
   55    51    50 1
   56    52    51 1
   57    53    51 1
   58    54    53 1
   59    55    54 1
   60    56    55 1
   61    57    56 1
   62    58    56 1
   63    59    58 1
   64    60    59 1
   65    61    60 1
   66    62    61 1
   67    63    61 1
   68    64    27 1
   69    64    46 1
   70    65     5 1
   71    65    10 1
   72    65    64 1
   73    65    14 1
   74    66    23 1
   75    67    23 1
   76    68    23 1
   77    69    22 1
   78    70    22 1
   79    71    22 1
   80    72    21 1
   81    73    21 1
   82    74    21 1
   83    75    20 1
   84    76    20 1
   85    77    20 1
   86    78    15 1
   87    79    15 1
   88    80    15 1
   89    81     8 1
   90    82     8 1
   91    83     8 1
   92    84     7 1
   93    85     7 1
   94    86     6 1
   95    87     6 1
   96    88     3 1
   97    89     3 1
   98    90     1 1
   99    91     1 1
  100    92    63 1
  101    93    63 1
  102    94    63 1
  103    95    62 1
  104    96    62 1
  105    97    62 1
  106    98    60 1
  107    99    60 1
  108   100    59 1
  109   101    59 1
  110   102    58 1
  111   103    58 1
  112   104    57 1
  113   105    57 1
  114   106    57 1
  115   107    55 1
  116   108    55 1
  117   109    54 1
  118   110    54 1
  119   111    53 1
  120   112    53 1
  121   113    19 1
  122   114    18 1
  123   115    17 1
  124   116     9 1
  125   117     2 1
  126   118    52 1
  127   119    52 1
  128   120    52 1
  129   121    51 1
  130   122    50 1
  131   123    50 1
  132   124    49 1
  133   125    49 1
  134   126    48 1
  135   127    48 1
  136   128    43 1
  137   129    43 1
  138   130    43 1
  139   131    39 1
  140   132    32 1
  141   133    31 1
  142   134    61 1
  143   135    56 1
  144   136    24 1
  145   137    24 1
  146   139   138 1
  147   140   139 1
  148   141   140 1
  149   142   140 1
  150   143   142 1
  151   144   138 1
  152   144   143 1
  153   145   144 1
  154   146   145 1
  155   147   146 1
  156   148   147 1
  157   149   148 1
  158   150   149 1
  159   151   150 1
  160   152   151 1
  161   153   152 1
  162   154   138 1
  163   155   138 1
  164   156   143 1
  165   157   147 1
  166   158   151 1
  167   160   159 1
  168   161   160 1
  169   162   161 1
  170   163   161 1
  171   164   163 1
  172   165   159 1
  173   165   164 1
  174   166   165 1
  175   167   166 1
  176   168   167 1
  177   169   168 1
  178   170   169 1
  179   171   170 1
  180   172   171 1
  181   173   172 1
  182   174   153 1
  183   174   173 1
  184   175   159 1
  185   176   159 1
  186   177   164 1
  187   178   168 1
  188   179   172 1
  189   180   179 1
  190   181   179 1
  191   182   179 1
  192   183   178 1
  193   184   178 1
  194   185   178 1
  195   186   177 1
  196   187   177 1
  197   188   177 1
  198   189   176 1
  199   190   176 1
  200   191   176 1
  201   192   175 1
  202   193   175 1
  203   194   175 1
  204   195   160 1
  205   196   160 1
  206   197   158 1
  207   198   158 1
  208   199   158 1
  209   200   157 1
  210   201   157 1
  211   202   157 1
  212   203   156 1
  213   204   156 1
  214   205   156 1
  215   206   155 1
  216   207   155 1
  217   208   155 1
  218   209   154 1
  219   210   154 1
  220   211   154 1
  221   212   141 1
  222   213   146 1
  223   214   145 1
  224   215   142 1
  225   216   142 1
  226   217   174 1
  227   218   173 1
  228   219   171 1
  229   220   170 1
  230   221   169 1
  231   222   140 1
  232   223   167 1
  233   224   166 1
  234   225   165 1
  235   226   163 1
  236   227   161 1
  237   228   139 1
  238   229   139 1
  239   230   153 1
  240   231   152 1
  241   232   150 1
  242   233   149 1
  243   234   148 1
  244   235   162 1
  245   65    153 1
  246   65    174 1
@<TRIPOS>SUBSTRUCTURE
      1 CLA               1 ****               0 ****  **** 
      2 LUT             138 ****               0 ****  **** 
