@<TRIPOS>MOLECULE
Cpptraj generated mol2 file.
  235   246     2     0     0
SMALL
USER_CHARGES


@<TRIPOS>ATOM
      1 CAA        78.0013   57.3535   34.6787 a2         1 CLA     -0.055900
      2 CAB        78.6195   61.9703   43.1143 c8         1 CLA     -0.148500
      3 CAC        71.3122   58.3956   43.1158 a2         1 CLA     -0.012600
      4 CAD        73.6692   55.2686   36.1020 ck         1 CLA      0.398800
      5 NA         77.0599   58.2632   37.9042 ns         1 CLA     -0.225500
      6 CBA        79.1008   56.9608   33.7436 a2         1 CLA     -0.135000
      7 CBB        79.8011   61.6842   43.7975 c0         1 CLA     -0.395200
      8 CBC        71.0267   56.9010   43.4377 a3         1 CLA     -0.037700
      9 CBD        75.1706   55.5789   35.6951 a1         1 CLA     -0.053900
     10 NB         77.1171   60.0747   40.3363 nm         1 CLA     -0.295700
     11 OBD        72.9560   54.5540   35.4105 o2         1 CLA     -0.494600
     12 CGA        79.4017   55.4919   33.4332 c4         1 CLA      0.827000
     13 CGD        76.0526   54.2465   35.7920 c4         1 CLA      0.655300
     14 ND         74.2814   57.5415   38.5914 nm         1 CLA     -0.291600
     15 CED        76.7991   52.5686   37.4400 a3         1 CLA      0.005400
     16 CHA        75.6213   56.6111   36.7184 cs         1 CLA     -0.123800
     17 CHB        78.9275   59.6256   38.7150 aa         1 CLA     -0.291900
     18 CHC        75.8787   60.4557   42.4247 aa         1 CLA     -0.090400
     19 CHD        72.5081   57.7115   40.2968 aa         1 CLA     -0.052000
     20 CMA        80.4482   57.3033   37.3527 a3         1 CLA     -0.230700
     21 CMB        80.6320   61.5120   40.6825 a3         1 CLA     -0.180800
     22 CMC        73.5361   60.1557   44.5706 a3         1 CLA     -0.134000
     23 CMD        70.9735   55.7492   38.3151 a3         1 CLA     -0.141100
     24 C1         80.3139   53.5305   34.5985 a2         1 CLA      0.023000
     25 C1A        76.8714   57.2312   36.9141 ac         1 CLA     -0.015100
     26 C1B        78.3795   60.3080   39.8635 cr         1 CLA      0.054700
     27 C1C        74.6968   59.7346   42.2962 cn         1 CLA     -0.005600
     28 C1D        73.0089   57.2272   39.0828 ap         1 CLA     -0.047300
     29 O1A        79.1166   54.7971   32.4657 o2         1 CLA     -0.610800
     30 O1D        77.0052   54.0269   35.0185 o2         1 CLA     -0.558200
     31 C2         80.7955   53.1763   36.0050 c8         1 CLA     -0.325100
     32 C2A        78.1614   57.0426   36.1428 a1         1 CLA      0.098600
     33 C2B        79.1689   61.0877   40.8175 cb         1 CLA      0.088500
     34 C2C        73.6253   59.5127   43.2277 cb         1 CLA      0.053700
     35 C2D        72.3360   56.3829   38.2221 cb         1 CLA      0.058900
     36 O2A        80.0945   54.9750   34.5015 o1         1 CLA     -0.437200
     37 O2D        75.7744   53.5364   36.9873 o1         1 CLA     -0.357600
     38 C3         81.7952   52.3437   36.3969 c5         1 CLA      0.031200
     39 C3A        79.2113   58.0019   36.7854 a1         1 CLA      0.166800
     40 C3B        78.2979   61.2609   41.8841 cb         1 CLA      0.035000
     41 C3C        72.6605   58.7689   42.5990 cb         1 CLA     -0.089900
     42 C3D        73.3638   56.0191   37.2973 cb         1 CLA     -0.035900
     43 C4         81.5824   50.8861   36.8608 a3         1 CLA     -0.053300
     44 C4A        78.3263   58.6856   37.8621 ac         1 CLA      0.001800
     45 C4B        77.0361   60.6091   41.5754 cn         1 CLA     -0.020900
     46 C4C        73.1977   58.4621   41.2729 cr         1 CLA     -0.044400
     47 C4D        74.5152   56.7751   37.5720 c6         1 CLA     -0.046000
     48 C5         83.1969   52.7633   36.6052 a2         1 CLA     -0.070400
     49 C6         83.4539   53.5121   37.9960 a2         1 CLA      0.043900
     50 C7         84.9027   53.7506   38.1230 a2         1 CLA     -0.150000
     51 C8         85.3942   55.0192   38.9864 a1         1 CLA      0.064200
     52 C9         86.8964   55.1098   38.8382 a3         1 CLA     -0.259300
     53 C10        85.0397   55.1686   40.5122 a2         1 CLA     -0.071900
     54 C11        83.5508   55.4367   40.6872 a2         1 CLA      0.014500
     55 C12        83.2811   56.1044   42.0396 a2         1 CLA     -0.112100
     56 C13        81.8673   56.6865   42.2335 a1         1 CLA      0.089200
     57 C14        81.3197   57.6880   41.2029 a3         1 CLA     -0.239100
     58 C15        81.7067   57.1255   43.7836 a2         1 CLA     -0.102200
     59 C16        82.3431   58.4226   44.1719 a2         1 CLA      0.023900
     60 C17        81.8566   58.9348   45.6044 a2         1 CLA     -0.105700
     61 C18        82.5459   60.3053   45.9682 a1         1 CLA      0.206800
     62 C19        81.9936   60.8797   47.2864 a3         1 CLA     -0.280100
     63 C20        84.0922   60.0963   46.0686 a3         1 CLA     -0.280100
     64 NC         74.4437   59.0129   41.1879 nx         1 CLA     -0.309200
     65 MG         75.6736   58.8762   39.3476 mg         1 CLA      0.895000
     66 HMD3       70.9597   54.7248   38.0044 dc         1 CLA      0.064300
     67 HMD2       70.4746   55.9144   39.2925 dc         1 CLA      0.064300
     68 HMD1       70.4105   56.3981   37.6550 dc         1 CLA      0.064300
     69 HMC3       74.2759   60.9070   44.7595 dc         1 CLA      0.052100
     70 HMC2       72.5346   60.6276   44.4542 dc         1 CLA      0.052100
     71 HMC1       73.5480   59.3980   45.3410 dc         1 CLA      0.052100
     72 HMB3       80.7790   62.3853   41.3008 dc         1 CLA      0.063600
     73 HMB2       81.2945   60.6833   41.0077 dc         1 CLA      0.063600
     74 HMB1       80.8821   61.7764   39.7198 dc         1 CLA      0.063600
     75 HMA3       81.1496   58.1567   37.5030 dc         1 CLA      0.058300
     76 HMA2       80.2379   56.9143   38.3255 dc         1 CLA      0.058300
     77 HMA1       80.8713   56.6115   36.6316 dc         1 CLA      0.058300
     78 HED3       76.6738   52.3913   38.5194 dc         1 CLA      0.079300
     79 HED2       76.7692   51.6203   36.8861 dc         1 CLA      0.079300
     80 HED1       77.7673   53.0467   37.3448 dc         1 CLA      0.079300
     81 HBC3       71.5914   56.5638   44.3233 dc         1 CLA      0.016300
     82 HBC2       69.9959   56.8167   43.6115 dc         1 CLA      0.016300
     83 HBC1       71.1552   56.2702   42.6081 dc         1 CLA      0.016300
     84 HBB2       79.9825   62.1639   44.7722 da         1 CLA      0.183000
     85 HBB1       80.5364   60.8498   43.4882 da         1 CLA      0.183000
     86 HBA2       78.9289   57.4543   32.7718 dc         1 CLA      0.029400
     87 HBA1       80.1536   57.3081   34.0789 dc         1 CLA      0.029400
     88 HAC2       71.1063   58.9758   44.0323 dc         1 CLA      0.029300
     89 HAC1       70.6507   58.7512   42.3789 dc         1 CLA      0.029300
     90 HAA2       77.0731   56.9010   34.2178 dc         1 CLA      0.028700
     91 HAA1       77.7971   58.4089   34.5775 dc         1 CLA      0.028700
     92 H203       84.5602   59.6327   45.2061 dc         1 CLA      0.065600
     93 H202       84.6567   61.0204   46.1784 dc         1 CLA      0.065600
     94 H201       84.3225   59.4867   46.9165 dc         1 CLA      0.065600
     95 H193       82.8252   61.4189   47.7858 dc         1 CLA      0.065600
     96 H192       81.2437   61.6158   47.0441 dc         1 CLA      0.065600
     97 H191       81.5271   60.1137   47.8447 dc         1 CLA      0.065600
     98 H172       80.8404   59.0366   45.5767 dc         1 CLA      0.027600
     99 H171       82.1327   58.1984   46.3782 dc         1 CLA      0.027600
    100 H162       83.4079   58.2513   44.2755 dc         1 CLA      0.002900
    101 H161       82.2025   59.1674   43.3499 dc         1 CLA      0.002900
    102 H152       80.5983   57.1223   44.0801 dc         1 CLA      0.029100
    103 H151       82.1738   56.3274   44.4108 dc         1 CLA      0.029100
    104 H143       81.1708   57.1787   40.1886 dc         1 CLA      0.063600
    105 H142       80.3698   58.0934   41.5441 dc         1 CLA      0.063600
    106 H141       81.9624   58.5483   41.1181 dc         1 CLA      0.063600
    107 H122       83.5679   55.3485   42.8170 dc         1 CLA      0.032500
    108 H121       83.9086   56.9277   42.0176 dc         1 CLA      0.032500
    109 H112       83.1487   56.0465   39.7862 dc         1 CLA      0.006600
    110 H111       82.9642   54.5041   40.6431 dc         1 CLA      0.006600
    111 H102       85.3635   54.2423   40.9605 dc         1 CLA      0.024100
    112 H101       85.6652   55.9239   40.9103 dc         1 CLA      0.024100
    113 HHD        71.5195   57.3541   40.5392 da         1 CLA      0.174300
    114 HHC        76.0797   60.8660   43.3920 da         1 CLA      0.136800
    115 HHB        79.9891   59.8726   38.4251 da         1 CLA      0.138300
    116 HBD        75.1549   55.9442   34.6343 dc         1 CLA      0.107700
    117 HAB        77.8571   62.5695   43.5161 da         1 CLA      0.155200
    118 H93        87.2957   55.9782   39.3644 dc         1 CLA      0.069500
    119 H92        87.3819   54.2391   39.2473 dc         1 CLA      0.069500
    120 H91        87.0475   55.3409   37.7605 dc         1 CLA      0.069500
    121 H8         84.8909   55.7867   38.4565 dc         1 CLA      0.029300
    122 H72        85.4156   52.9144   38.5528 dc         1 CLA      0.044400
    123 H71        85.3160   53.9636   37.1344 dc         1 CLA      0.044400
    124 H62        82.8567   54.4569   37.8587 dc         1 CLA      0.015600
    125 H61        83.0321   53.0415   38.8078 dc         1 CLA      0.015600
    126 H52        83.8544   51.8297   36.6485 dc         1 CLA      0.033200
    127 H51        83.4498   53.3801   35.7424 dc         1 CLA      0.033200
    128 H43        82.2095   50.1423   36.3820 dc         1 CLA      0.037000
    129 H42        81.5955   50.8493   37.9528 dc         1 CLA      0.037000
    130 H41        80.5315   50.6512   36.5730 dc         1 CLA      0.037000
    131 H3A        79.5492   58.7232   36.0375 dc         1 CLA      0.041100
    132 H2A        78.5280   56.0196   36.1820 dc         1 CLA      0.083100
    133 H2         80.2847   53.7481   36.7762 da         1 CLA      0.180900
    134 H18        82.4844   61.0949   45.2727 dc         1 CLA     -0.003900
    135 H13        81.1040   55.8772   42.1763 dc         1 CLA      0.019700
    136 H12        79.4241   52.9825   34.3080 dc         1 CLA      0.120400
    137 H11        81.1087   53.1979   33.9039 dc         1 CLA      0.120400
    138 C1         67.6845   60.9495   49.7912 Z1         2 LUT      0.509236
    139 C2         66.4359   60.6767   50.6760 Z2         2 LUT     -0.434695
    140 C3         65.3182   61.7044   50.8766 Z3         2 LUT      0.437453
    141 O3         65.0201   61.9115   52.2149 S1         2 LUT     -0.547129
    142 C4         65.6940   63.0302   50.2342 Z4         2 LUT     -0.468603
    143 C5         66.3588   62.9173   48.8663 Z5         2 LUT      0.279246
    144 C6         67.3155   61.9616   48.6532 Z6         2 LUT     -0.305473
    145 C7         67.6842   61.5673   47.3134 Z7         2 LUT      0.069402
    146 C8         68.8606   61.7663   46.6954 Z8         2 LUT     -0.191631
    147 C9         69.1199   61.6224   45.2609 Z9         2 LUT      0.196698
    148 C10        70.0847   62.4250   44.7456 Y1         2 LUT     -0.208611
    149 C11        70.7808   62.2503   43.5274 Y2         2 LUT      0.030784
    150 C12        71.9267   63.0016   43.4918 Y3         2 LUT     -0.220316
    151 C13        72.9208   62.9376   42.4447 Y4         2 LUT      0.215937
    152 C14        74.0660   63.6682   42.5946 Y5         2 LUT     -0.185793
    153 C15        75.2800   63.7124   41.7250 Y6         2 LUT     -0.057835
    154 C16        68.2829   59.6126   49.2892 Y7         2 LUT     -0.405615
    155 C17        68.7855   61.6576   50.7411 Y7         2 LUT     -0.405615
    156 C18        65.5133   63.6622   47.8623 Y9         2 LUT     -0.369639
    157 C19        68.4307   60.5149   44.6013 W1         2 LUT     -0.333362
    158 C20        72.5535   62.1973   41.1868 W2         2 LUT     -0.323439
    159 C21        86.2186   64.8320   35.3475 Z1         2 LUT      0.406104
    160 C22        87.2593   64.3301   34.3100 Z2         2 LUT     -0.404965
    161 C23        87.6043   65.4882   33.2898 Z3         2 LUT      0.391255
    162 O23        88.6813   64.9899   32.4105 S1         2 LUT     -0.528210
    163 C24        86.5069   66.3645   32.8914 W6         2 LUT     -0.258361
    164 C25        85.3005   66.4248   33.5047 Z5         2 LUT      0.133546
    165 C26        84.9787   65.5865   34.7434 W8         2 LUT     -0.147008
    166 C27        84.1560   66.3140   35.8132 Z7         2 LUT      0.023843
    167 C28        83.0195   65.9406   36.5159 Z8         2 LUT     -0.216987
    168 C29        82.4214   66.3170   37.7488 Z9         2 LUT      0.206524
    169 C30        81.3490   65.6810   38.1863 Y1         2 LUT     -0.215556
    170 C31        80.6719   65.8703   39.4407 Y2         2 LUT      0.025142
    171 C32        79.6701   65.0957   39.8421 Y3         2 LUT     -0.212209
    172 C33        78.7113   65.1983   40.9741 Y4         2 LUT      0.240937
    173 C34        77.4605   64.4661   40.8588 Y5         2 LUT     -0.218862
    174 C35        76.3718   64.5269   41.8581 Y6         2 LUT     -0.023547
    175 C36        87.0941   65.6413   36.3520 Y7         2 LUT     -0.393485
    176 C37        85.7909   63.5140   36.0741 Y7         2 LUT     -0.393485
    177 C38        84.1687   67.2376   32.8739 Y9         2 LUT     -0.387526
    178 C39        83.0897   67.3912   38.5012 W1         2 LUT     -0.322618
    179 C40        78.9133   66.3731   41.8781 W2         2 LUT     -0.358472
    180 H403       78.5142   66.1528   42.8617 R7         2 LUT      0.097720
    181 H402       79.9636   66.6186   42.0885 R7         2 LUT      0.097720
    182 H401       78.4919   67.2965   41.5331 R7         2 LUT      0.097720
    183 H393       82.8954   67.4509   39.5327 R4         2 LUT      0.082505
    184 H392       84.1343   67.2920   38.3889 R4         2 LUT      0.082505
    185 H391       82.5794   68.3061   38.2185 R4         2 LUT      0.082505
    186 H383       84.0272   68.1468   33.5116 R1         2 LUT      0.104030
    187 H382       84.4980   67.7288   31.9834 R1         2 LUT      0.104030
    188 H381       83.2568   66.7045   32.8365 R1         2 LUT      0.104030
    189 H373       86.6049   62.8265   36.2755 T4         2 LUT      0.089537
    190 H372       85.1553   63.7051   36.9932 T4         2 LUT      0.089537
    191 H371       85.2428   62.8938   35.4366 T4         2 LUT      0.089537
    192 H363       86.6180   65.6731   37.3169 T4         2 LUT      0.089537
    193 H362       88.0181   65.1142   36.5070 T4         2 LUT      0.089537
    194 H361       87.4432   66.6851   36.0560 T4         2 LUT      0.089537
    195 H222       88.1390   63.8781   34.7976 U2         2 LUT      0.127376
    196 H221       86.7373   63.5212   33.7290 U2         2 LUT      0.127376
    197 H203       73.0714   62.5657   40.3508 R7         2 LUT      0.087068
    198 H202       72.8482   61.1325   41.1383 R7         2 LUT      0.087068
    199 H201       71.5165   62.2437   40.9401 R7         2 LUT      0.087068
    200 H193       67.2846   60.6350   44.5446 R4         2 LUT      0.089716
    201 H192       68.7642   60.4787   43.5896 R4         2 LUT      0.089716
    202 H191       68.6980   59.5443   45.0299 R4         2 LUT      0.089716
    203 H183       65.6317   63.3258   46.8204 R1         2 LUT      0.094572
    204 H182       64.4539   63.5659   48.1151 R1         2 LUT      0.094572
    205 H181       65.8247   64.7102   47.8796 R1         2 LUT      0.094572
    206 H173       69.8355   61.8368   50.3194 T4         2 LUT      0.093752
    207 H172       68.4370   62.6467   51.0436 T4         2 LUT      0.093752
    208 H171       68.9248   61.0668   51.6291 T4         2 LUT      0.093752
    209 H163       68.5939   58.8090   49.9984 T4         2 LUT      0.093752
    210 H162       67.5614   59.0980   48.6186 T4         2 LUT      0.093752
    211 H161       69.1883   59.7784   48.6671 T4         2 LUT      0.093752
    212 HO3        64.4136   61.2883   52.6123 Q1         2 LUT      0.300121
    213 H8         69.6880   62.2855   47.3964 U7         2 LUT      0.080784
    214 H7         66.7755   61.2083   46.6991 U6         2 LUT      0.042190
    215 H42        64.7799   63.5880   50.1687 U5         2 LUT      0.145166
    216 H41        66.2687   63.5413   50.9581 U5         2 LUT      0.145166
    217 H35        76.3766   65.0486   42.8003 T3         2 LUT      0.077919
    218 H34        77.3358   63.8751   39.9491 T2         2 LUT      0.073626
    219 H32        79.3453   64.3425   39.0712 T1         2 LUT      0.092510
    220 H31        80.9334   66.6850   40.0911 U9         2 LUT      0.070048
    221 H30        80.9667   64.9031   37.5072 U8         2 LUT      0.085442
    222 H3         64.4583   61.4393   50.2337 U3         2 LUT     -0.031596
    223 H28        82.4855   65.0620   36.1033 U7         2 LUT      0.084728
    224 H27        84.7984   67.0913   36.1327 U6         2 LUT      0.087291
    225 H26        84.2868   64.8837   34.2625 Q6         2 LUT      0.075325
    226 H24        86.7021   66.8763   31.9199 Q5         2 LUT      0.094482
    227 H23        88.3094   66.1614   33.7624 U3         2 LUT     -0.024869
    228 H22        65.7739   59.9131   50.1739 U2         2 LUT      0.127376
    229 H21        66.7740   60.2599   51.6554 U2         2 LUT      0.127376
    230 H15        75.3005   62.9873   40.9119 T3         2 LUT      0.093200
    231 H14        74.1798   64.2179   43.5065 T2         2 LUT      0.068865
    232 H12        72.2526   63.7089   44.2451 T1         2 LUT      0.095507
    233 H11        70.6426   61.4985   42.7669 U9         2 LUT      0.068930
    234 H10        70.4515   63.1990   45.3471 U8         2 LUT      0.083911
    235 H1         88.2744   64.5918   31.5859 Q1         2 LUT      0.297311
@<TRIPOS>BOND
    1     6     1 1
    2     7     2 1
    3     8     3 1
    4     9     4 1
    5    11     4 1
    6    12     6 1
    7    13     9 1
    8    16     9 1
    9    25     5 1
   10    25    16 1
   11    26    10 1
   12    26    17 1
   13    27    18 1
   14    28    14 1
   15    28    19 1
   16    29    12 1
   17    30    13 1
   18    31    24 1
   19    32     1 1
   20    32    25 1
   21    33    21 1
   22    33    26 1
   23    34    22 1
   24    34    27 1
   25    35    23 1
   26    35    28 1
   27    36    12 1
   28    36    24 1
   29    37    13 1
   30    37    15 1
   31    38    31 1
   32    39    20 1
   33    39    32 1
   34    40     2 1
   35    40    33 1
   36    41     3 1
   37    41    34 1
   38    42     4 1
   39    42    35 1
   40    43    38 1
   41    44     5 1
   42    44    17 1
   43    44    39 1
   44    45    10 1
   45    45    18 1
   46    45    40 1
   47    46    19 1
   48    46    41 1
   49    47    14 1
   50    47    16 1
   51    47    42 1
   52    48    38 1
   53    49    48 1
   54    50    49 1
   55    51    50 1
   56    52    51 1
   57    53    51 1
   58    54    53 1
   59    55    54 1
   60    56    55 1
   61    57    56 1
   62    58    56 1
   63    59    58 1
   64    60    59 1
   65    61    60 1
   66    62    61 1
   67    63    61 1
   68    64    27 1
   69    64    46 1
   70    65     5 1
   71    65    10 1
   72    65    64 1
   73    65    14 1
   74    66    23 1
   75    67    23 1
   76    68    23 1
   77    69    22 1
   78    70    22 1
   79    71    22 1
   80    72    21 1
   81    73    21 1
   82    74    21 1
   83    75    20 1
   84    76    20 1
   85    77    20 1
   86    78    15 1
   87    79    15 1
   88    80    15 1
   89    81     8 1
   90    82     8 1
   91    83     8 1
   92    84     7 1
   93    85     7 1
   94    86     6 1
   95    87     6 1
   96    88     3 1
   97    89     3 1
   98    90     1 1
   99    91     1 1
  100    92    63 1
  101    93    63 1
  102    94    63 1
  103    95    62 1
  104    96    62 1
  105    97    62 1
  106    98    60 1
  107    99    60 1
  108   100    59 1
  109   101    59 1
  110   102    58 1
  111   103    58 1
  112   104    57 1
  113   105    57 1
  114   106    57 1
  115   107    55 1
  116   108    55 1
  117   109    54 1
  118   110    54 1
  119   111    53 1
  120   112    53 1
  121   113    19 1
  122   114    18 1
  123   115    17 1
  124   116     9 1
  125   117     2 1
  126   118    52 1
  127   119    52 1
  128   120    52 1
  129   121    51 1
  130   122    50 1
  131   123    50 1
  132   124    49 1
  133   125    49 1
  134   126    48 1
  135   127    48 1
  136   128    43 1
  137   129    43 1
  138   130    43 1
  139   131    39 1
  140   132    32 1
  141   133    31 1
  142   134    61 1
  143   135    56 1
  144   136    24 1
  145   137    24 1
  146   139   138 1
  147   140   139 1
  148   141   140 1
  149   142   140 1
  150   143   142 1
  151   144   138 1
  152   144   143 1
  153   145   144 1
  154   146   145 1
  155   147   146 1
  156   148   147 1
  157   149   148 1
  158   150   149 1
  159   151   150 1
  160   152   151 1
  161   153   152 1
  162   154   138 1
  163   155   138 1
  164   156   143 1
  165   157   147 1
  166   158   151 1
  167   160   159 1
  168   161   160 1
  169   162   161 1
  170   163   161 1
  171   164   163 1
  172   165   159 1
  173   165   164 1
  174   166   165 1
  175   167   166 1
  176   168   167 1
  177   169   168 1
  178   170   169 1
  179   171   170 1
  180   172   171 1
  181   173   172 1
  182   174   153 1
  183   174   173 1
  184   175   159 1
  185   176   159 1
  186   177   164 1
  187   178   168 1
  188   179   172 1
  189   180   179 1
  190   181   179 1
  191   182   179 1
  192   183   178 1
  193   184   178 1
  194   185   178 1
  195   186   177 1
  196   187   177 1
  197   188   177 1
  198   189   176 1
  199   190   176 1
  200   191   176 1
  201   192   175 1
  202   193   175 1
  203   194   175 1
  204   195   160 1
  205   196   160 1
  206   197   158 1
  207   198   158 1
  208   199   158 1
  209   200   157 1
  210   201   157 1
  211   202   157 1
  212   203   156 1
  213   204   156 1
  214   205   156 1
  215   206   155 1
  216   207   155 1
  217   208   155 1
  218   209   154 1
  219   210   154 1
  220   211   154 1
  221   212   141 1
  222   213   146 1
  223   214   145 1
  224   215   142 1
  225   216   142 1
  226   217   174 1
  227   218   173 1
  228   219   171 1
  229   220   170 1
  230   221   169 1
  231   222   140 1
  232   223   167 1
  233   224   166 1
  234   225   165 1
  235   226   163 1
  236   227   161 1
  237   228   139 1
  238   229   139 1
  239   230   153 1
  240   231   152 1
  241   232   150 1
  242   233   149 1
  243   234   148 1
  244   235   162 1
  245   65    153 1
  246   65    174 1
@<TRIPOS>SUBSTRUCTURE
      1 CLA               1 ****               0 ****  **** 
      2 LUT             138 ****               0 ****  **** 
