@<TRIPOS>MOLECULE
Cpptraj generated mol2 file.
  235   246     2     0     0
SMALL
USER_CHARGES


@<TRIPOS>ATOM
      1 CAA        77.7488   58.8944   34.1089 a2         1 CLA     -0.055900
      2 CAB        77.3483   62.1028   43.0889 c8         1 CLA     -0.148500
      3 CAC        70.6230   57.9663   42.3328 a2         1 CLA     -0.012600
      4 CAD        73.6255   55.9878   34.8452 ck         1 CLA      0.398800
      5 NA         76.6343   58.8640   37.4518 ns         1 CLA     -0.225500
      6 CBA        78.9490   58.7036   33.0773 a2         1 CLA     -0.135000
      7 CBB        78.5751   61.8872   43.6834 c0         1 CLA     -0.395200
      8 CBC        70.7554   56.4147   42.2369 a3         1 CLA     -0.037700
      9 CBD        75.1075   56.5713   34.6382 a1         1 CLA     -0.053900
     10 NB         76.3317   60.5069   39.9956 nm         1 CLA     -0.295700
     11 OBD        73.0820   55.2716   34.0240 o2         1 CLA     -0.494600
     12 CGA        79.3693   57.2709   32.6135 c4         1 CLA      0.827000
     13 CGD        76.0739   55.4058   34.2096 c4         1 CLA      0.655300
     14 ND         74.0363   57.8399   37.8891 nm         1 CLA     -0.291600
     15 CED        76.5797   53.0949   34.5093 a3         1 CLA      0.005400
     16 CHA        75.4244   57.3798   35.9334 cs         1 CLA     -0.123800
     17 CHB        78.2851   60.2901   38.5735 aa         1 CLA     -0.291900
     18 CHC        74.9753   60.5343   42.0059 aa         1 CLA     -0.090400
     19 CHD        72.0798   57.6727   39.4234 aa         1 CLA     -0.052000
     20 CMA        80.0786   58.1904   36.9766 a3         1 CLA     -0.230700
     21 CMB        79.6127   62.0854   40.6798 a3         1 CLA     -0.180800
     22 CMC        72.5424   59.9622   43.9786 a3         1 CLA     -0.134000
     23 CMD        70.8491   55.8453   37.0129 a3         1 CLA     -0.141100
     24 C1         80.0924   55.1898   33.4255 a2         1 CLA      0.023000
     25 C1A        76.5687   58.1459   36.3096 ac         1 CLA     -0.015100
     26 C1B        77.6290   60.7526   39.7114 cr         1 CLA      0.054700
     27 C1C        73.8341   59.8088   41.6761 cn         1 CLA     -0.005600
     28 C1D        72.7154   57.3336   38.2072 ap         1 CLA     -0.047300
     29 O1A        79.4222   56.8260   31.4771 o2         1 CLA     -0.610800
     30 O1D        76.8423   55.4348   33.2359 o2         1 CLA     -0.558200
     31 C2         80.6805   54.5201   34.6718 c8         1 CLA     -0.325100
     32 C2A        77.8988   58.1547   35.5052 a1         1 CLA      0.098600
     33 C2B        78.1652   61.5846   40.7292 cb         1 CLA      0.088500
     34 C2C        72.6852   59.4625   42.4942 cb         1 CLA      0.053700
     35 C2D        72.2091   56.4958   37.1053 cb         1 CLA      0.058900
     36 O2A        79.7454   56.5554   33.7242 o1         1 CLA     -0.437200
     37 O2D        75.8317   54.2966   34.9208 o1         1 CLA     -0.357600
     38 C3         81.5931   53.5714   34.7017 c5         1 CLA      0.031200
     39 C3A        78.9099   58.9624   36.4100 a1         1 CLA      0.166800
     40 C3B        77.2256   61.6390   41.7525 cb         1 CLA      0.035000
     41 C3C        71.8832   58.6139   41.7504 cb         1 CLA     -0.089900
     42 C3D        73.2166   56.4874   36.1655 cb         1 CLA     -0.035900
     43 C4         81.2247   52.0551   34.9098 a3         1 CLA     -0.053300
     44 C4A        77.8826   59.4383   37.5497 ac         1 CLA      0.001800
     45 C4B        76.0818   60.9111   41.2560 cn         1 CLA     -0.020900
     46 C4C        72.5328   58.4587   40.4640 cr         1 CLA     -0.044400
     47 C4D        74.3194   57.2837   36.7412 c6         1 CLA     -0.046000
     48 C5         82.9981   53.9584   34.7258 a2         1 CLA     -0.070400
     49 C6         83.4321   55.3674   35.0518 a2         1 CLA      0.043900
     50 C7         83.7544   55.5537   36.5521 a2         1 CLA     -0.150000
     51 C8         83.8624   57.0291   37.0750 a1         1 CLA      0.064200
     52 C9         85.0192   57.9227   36.5013 a3         1 CLA     -0.259300
     53 C10        83.8176   57.1736   38.6356 a2         1 CLA     -0.071900
     54 C11        82.3888   57.3584   39.2773 a2         1 CLA      0.014500
     55 C12        82.3990   57.1004   40.7731 a2         1 CLA     -0.112100
     56 C13        81.1101   57.0080   41.6374 a1         1 CLA      0.089200
     57 C14        80.2236   58.2919   41.5361 a3         1 CLA     -0.239100
     58 C15        81.4586   56.7173   43.1990 a2         1 CLA     -0.102200
     59 C16        82.3963   57.7130   43.8464 a2         1 CLA      0.023900
     60 C17        82.7448   57.2908   45.2669 a2         1 CLA     -0.105700
     61 C18        83.6354   58.2376   46.0415 a1         1 CLA      0.206800
     62 C19        82.8662   59.4938   46.4040 a3         1 CLA     -0.280100
     63 C20        84.1263   57.6024   47.3385 a3         1 CLA     -0.280100
     64 NC         73.6656   59.2220   40.4370 nx         1 CLA     -0.309200
     65 MG         75.1010   59.1940   38.8273 mg         1 CLA      0.895000
     66 HMD3       70.1399   56.5284   37.4210 dc         1 CLA      0.064300
     67 HMD2       70.5125   55.4560   36.0506 dc         1 CLA      0.064300
     68 HMD1       70.8404   55.0257   37.7284 dc         1 CLA      0.064300
     69 HMC3       71.6549   59.5512   44.4536 dc         1 CLA      0.052100
     70 HMC2       73.2888   59.5844   44.6403 dc         1 CLA      0.052100
     71 HMC1       72.5259   61.0195   43.9989 dc         1 CLA      0.052100
     72 HMB3       79.9021   62.7730   41.4654 dc         1 CLA      0.063600
     73 HMB2       80.3379   61.2165   40.7197 dc         1 CLA      0.063600
     74 HMB1       79.7891   62.6177   39.7097 dc         1 CLA      0.063600
     75 HMA3       80.7095   58.9137   37.4797 dc         1 CLA      0.058300
     76 HMA2       79.7630   57.4722   37.7031 dc         1 CLA      0.058300
     77 HMA1       80.6057   57.5547   36.2258 dc         1 CLA      0.058300
     78 HED3       77.6306   53.1183   34.6500 dc         1 CLA      0.079300
     79 HED2       76.0122   52.2671   34.9590 dc         1 CLA      0.079300
     80 HED1       76.3618   53.0575   33.4122 dc         1 CLA      0.079300
     81 HBC3       70.5437   55.9408   41.2944 dc         1 CLA      0.016300
     82 HBC2       71.8170   56.1973   42.4587 dc         1 CLA      0.016300
     83 HBC1       70.1514   55.8768   42.9570 dc         1 CLA      0.016300
     84 HBB2       78.7987   62.1671   44.7023 da         1 CLA      0.183000
     85 HBB1       79.3565   61.3898   43.1751 da         1 CLA      0.183000
     86 HBA2       78.6910   59.2248   32.0876 dc         1 CLA      0.029400
     87 HBA1       79.7339   59.2822   33.5380 dc         1 CLA      0.029400
     88 HAC2       70.4507   58.2357   43.3642 dc         1 CLA      0.029300
     89 HAC1       69.7487   58.2704   41.7865 dc         1 CLA      0.029300
     90 HAA2       76.8596   58.4674   33.6519 dc         1 CLA      0.028700
     91 HAA1       77.3440   59.9036   34.3077 dc         1 CLA      0.028700
     92 H203       84.8236   58.2511   47.8403 dc         1 CLA      0.065600
     93 H202       83.2711   57.4725   48.0027 dc         1 CLA      0.065600
     94 H201       84.5823   56.6323   47.2157 dc         1 CLA      0.065600
     95 H193       82.4560   59.9806   45.4559 dc         1 CLA      0.065600
     96 H192       81.9971   59.2061   47.0574 dc         1 CLA      0.065600
     97 H191       83.5166   60.1933   46.9169 dc         1 CLA      0.065600
     98 H172       81.8482   57.1203   45.7942 dc         1 CLA      0.027600
     99 H171       83.1769   56.2956   45.1117 dc         1 CLA      0.027600
    100 H162       83.3948   57.7395   43.3327 dc         1 CLA      0.002900
    101 H161       81.9132   58.6627   43.8049 dc         1 CLA      0.002900
    102 H152       80.6153   56.6716   43.8703 dc         1 CLA      0.029100
    103 H151       81.9829   55.7186   43.2587 dc         1 CLA      0.029100
    104 H143       79.7986   58.3888   40.5685 dc         1 CLA      0.063600
    105 H142       79.3001   58.2579   42.1729 dc         1 CLA      0.063600
    106 H141       80.8803   59.1353   41.7101 dc         1 CLA      0.063600
    107 H122       82.9423   56.1840   40.9642 dc         1 CLA      0.032500
    108 H121       83.0379   57.8975   41.0888 dc         1 CLA      0.032500
    109 H112       82.0301   58.3557   39.1243 dc         1 CLA      0.006600
    110 H111       81.6952   56.5938   38.8858 dc         1 CLA      0.006600
    111 H102       84.1782   56.1845   38.9862 dc         1 CLA      0.024100
    112 H101       84.5027   57.8956   39.0601 dc         1 CLA      0.024100
    113 HHD        71.0988   57.1933   39.4822 da         1 CLA      0.174300
    114 HHC        75.0383   60.9890   42.9991 da         1 CLA      0.136800
    115 HHB        79.3053   60.6537   38.5103 da         1 CLA      0.138300
    116 HBD        74.9813   57.2837   33.8632 dc         1 CLA      0.107700
    117 HAB        76.5473   62.5965   43.6403 da         1 CLA      0.155200
    118 H93        85.0674   57.6937   35.4379 dc         1 CLA      0.069500
    119 H92        84.7824   58.9893   36.6929 dc         1 CLA      0.069500
    120 H91        85.9234   57.5112   36.9664 dc         1 CLA      0.069500
    121 H8         82.9867   57.5590   36.6703 dc         1 CLA      0.029300
    122 H72        82.9247   55.1371   37.1313 dc         1 CLA      0.044400
    123 H71        84.7252   55.0623   36.8340 dc         1 CLA      0.044400
    124 H62        84.3966   55.6066   34.5615 dc         1 CLA      0.015600
    125 H61        82.7071   56.0792   34.6555 dc         1 CLA      0.015600
    126 H52        83.5674   53.3042   35.3616 dc         1 CLA      0.033200
    127 H51        83.3313   53.7375   33.7393 dc         1 CLA      0.033200
    128 H43        80.1771   51.9043   34.8170 dc         1 CLA      0.037000
    129 H42        81.7239   51.3076   34.2132 dc         1 CLA      0.037000
    130 H41        81.4689   51.7393   35.9151 dc         1 CLA      0.037000
    131 H3A        79.3135   59.8445   35.8802 dc         1 CLA      0.041100
    132 H2A        78.1658   57.1635   35.2749 dc         1 CLA      0.083100
    133 H2         80.2794   54.8465   35.6197 da         1 CLA      0.180900
    134 H18        84.5545   58.5111   45.4883 dc         1 CLA     -0.003900
    135 H13        80.4867   56.1515   41.3377 dc         1 CLA      0.019700
    136 H12        79.1746   54.6151   33.1875 dc         1 CLA      0.120400
    137 H11        80.8039   54.9564   32.6335 dc         1 CLA      0.120400
    138 C1         68.0428   61.5446   49.7156 Z1         2 LUT      0.509236
    139 C2         67.8377   62.1929   51.0788 Z2         2 LUT     -0.434695
    140 C3         66.3961   62.7946   51.1536 Z3         2 LUT      0.437453
    141 O3         66.2456   63.4633   52.4011 S1         2 LUT     -0.547129
    142 C4         66.3198   63.9318   50.1699 Z4         2 LUT     -0.468603
    143 C5         66.5866   63.4744   48.7103 Z5         2 LUT      0.279246
    144 C6         67.3596   62.3176   48.5102 Z6         2 LUT     -0.305473
    145 C7         67.9083   62.1019   47.1450 Z7         2 LUT      0.069402
    146 C8         68.9025   62.7379   46.5537 Z8         2 LUT     -0.191631
    147 C9         69.3506   62.5020   45.1635 Z9         2 LUT      0.196698
    148 C10        70.3965   63.2262   44.6267 Y1         2 LUT     -0.208611
    149 C11        70.9794   63.1916   43.2859 Y2         2 LUT      0.030784
    150 C12        72.1744   63.8187   42.9980 Y3         2 LUT     -0.220316
    151 C13        72.9193   63.7706   41.7055 Y4         2 LUT      0.215937
    152 C14        74.1711   64.3081   41.7360 Y5         2 LUT     -0.185793
    153 C15        75.2204   64.3938   40.7935 Y6         2 LUT     -0.057835
    154 C16        67.2943   60.1018   49.7439 Y7         2 LUT     -0.405615
    155 C17        69.5485   61.1980   49.5339 Y7         2 LUT     -0.405615
    156 C18        66.2255   64.5830   47.7155 Y9         2 LUT     -0.369639
    157 C19        68.6129   61.5684   44.1991 W1         2 LUT     -0.333362
    158 C20        72.5206   62.7854   40.5884 W2         2 LUT     -0.323439
    159 C21        86.6662   65.9856   34.7517 Z1         2 LUT      0.406104
    160 C22        87.3513   65.4539   33.4914 Z2         2 LUT     -0.404965
    161 C23        87.6342   66.5053   32.4644 Z3         2 LUT      0.391255
    162 O23        88.3729   65.8393   31.4488 S1         2 LUT     -0.528210
    163 C24        86.2415   67.1021   32.0790 W6         2 LUT     -0.258361
    164 C25        85.1112   67.1391   32.8323 Z5         2 LUT      0.133546
    165 C26        85.2251   66.4839   34.2897 W8         2 LUT     -0.147008
    166 C27        84.4490   67.3987   35.2516 Z7         2 LUT      0.023843
    167 C28        83.2855   66.9828   35.8801 Z8         2 LUT     -0.216987
    168 C29        82.6481   67.3506   37.1017 Z9         2 LUT      0.206524
    169 C30        81.5263   66.6938   37.5021 Y1         2 LUT     -0.215556
    170 C31        80.6651   66.8190   38.6837 Y2         2 LUT      0.025142
    171 C32        79.5292   66.0996   38.8638 Y3         2 LUT     -0.212209
    172 C33        78.6045   66.0868   40.0047 Y4         2 LUT      0.240937
    173 C34        77.4886   65.2390   40.0402 Y5         2 LUT     -0.218862
    174 C35        76.4169   65.1295   40.9744 Y6         2 LUT     -0.023547
    175 C36        87.5277   67.1624   35.2227 Y7         2 LUT     -0.393485
    176 C37        86.7136   64.9279   35.9241 Y7         2 LUT     -0.393485
    177 C38        83.8260   67.8258   32.4730 Y9         2 LUT     -0.387526
    178 C39        83.1021   68.6207   37.9259 W1         2 LUT     -0.322618
    179 C40        78.7872   67.0748   41.0690 W2         2 LUT     -0.358472
    180 H403       78.2444   66.7316   41.9874 R7         2 LUT      0.097720
    181 H402       79.8600   67.1466   41.3196 R7         2 LUT      0.097720
    182 H401       78.4416   68.0314   40.6945 R7         2 LUT      0.097720
    183 H393       83.8863   68.4292   38.7389 R4         2 LUT      0.082505
    184 H392       83.4836   69.3908   37.3570 R4         2 LUT      0.082505
    185 H391       82.2510   69.0775   38.4152 R4         2 LUT      0.082505
    186 H383       83.9129   68.4009   31.5243 R1         2 LUT      0.104030
    187 H382       82.8727   67.1949   32.4829 R1         2 LUT      0.104030
    188 H381       83.6748   68.6115   33.1164 R1         2 LUT      0.104030
    189 H373       87.6978   64.6886   36.2848 T4         2 LUT      0.089537
    190 H372       86.1215   65.1951   36.7943 T4         2 LUT      0.089537
    191 H371       86.3056   63.9367   35.6094 T4         2 LUT      0.089537
    192 H363       88.6341   66.9633   35.1769 T4         2 LUT      0.089537
    193 H362       87.2970   68.0624   34.7064 T4         2 LUT      0.089537
    194 H361       87.2479   67.2927   36.2771 T4         2 LUT      0.089537
    195 H222       88.2710   65.0113   33.8970 U2         2 LUT      0.127376
    196 H221       86.7704   64.6366   33.0640 U2         2 LUT      0.127376
    197 H203       71.5306   63.0081   40.2512 R7         2 LUT      0.087068
    198 H202       73.1067   62.7574   39.6800 R7         2 LUT      0.087068
    199 H201       72.5750   61.7317   40.9137 R7         2 LUT      0.087068
    200 H193       67.7579   61.0904   44.6671 R4         2 LUT      0.089716
    201 H192       68.2595   62.0797   43.2650 R4         2 LUT      0.089716
    202 H191       69.3226   60.8274   43.9431 R4         2 LUT      0.089716
    203 H183       65.7356   64.1970   46.8219 R1         2 LUT      0.094572
    204 H182       65.6584   65.3857   48.2128 R1         2 LUT      0.094572
    205 H181       67.0213   65.2075   47.3517 R1         2 LUT      0.094572
    206 H173       70.0245   60.7184   50.4190 T4         2 LUT      0.093752
    207 H172       69.5938   60.5244   48.6830 T4         2 LUT      0.093752
    208 H171       70.0500   62.1240   49.2525 T4         2 LUT      0.093752
    209 H163       67.8844   59.3655   50.3417 T4         2 LUT      0.093752
    210 H162       66.3187   60.0928   50.2891 T4         2 LUT      0.093752
    211 H161       67.1798   59.6417   48.7766 T4         2 LUT      0.093752
    212 HO3        66.1006   62.8588   53.1531 Q1         2 LUT      0.300121
    213 H8         69.4589   63.5457   46.9901 U7         2 LUT      0.080784
    214 H7         67.4081   61.3232   46.5993 U6         2 LUT      0.042190
    215 H42        65.3281   64.4212   50.1608 U5         2 LUT      0.145166
    216 H41        67.0645   64.7222   50.6066 U5         2 LUT      0.145166
    217 H35        76.5538   65.6933   41.8650 T3         2 LUT      0.077919
    218 H34        77.4487   64.4674   39.3087 T2         2 LUT      0.073626
    219 H32        79.4158   65.3820   37.9771 T1         2 LUT      0.092510
    220 H31        80.9308   67.5057   39.5127 U9         2 LUT      0.070048
    221 H30        81.3014   65.8518   36.8587 U8         2 LUT      0.085442
    222 H3         65.5882   62.0444   50.9565 U3         2 LUT     -0.031596
    223 H28        82.7951   66.0869   35.5188 U7         2 LUT      0.084728
    224 H27        85.0673   68.1874   35.7044 U6         2 LUT      0.087291
    225 H26        84.6936   65.5752   34.2512 Q6         2 LUT      0.075325
    226 H24        86.2042   67.7676   31.1912 Q5         2 LUT      0.094482
    227 H23        88.3329   67.2242   32.9013 U3         2 LUT     -0.024869
    228 H22        67.9060   61.4618   51.8877 U2         2 LUT      0.127376
    229 H21        68.5423   63.0264   51.1286 U2         2 LUT      0.127376
    230 H15        75.2216   63.7938   39.9032 T3         2 LUT      0.093200
    231 H14        74.4742   64.7449   42.6136 T2         2 LUT      0.068865
    232 H12        72.7591   64.3217   43.8408 T1         2 LUT      0.095507
    233 H11        70.5265   62.6788   42.4879 U9         2 LUT      0.068930
    234 H10        70.9788   63.7870   45.3524 U8         2 LUT      0.083911
    235 H1         87.7935   65.4119   30.7908 Q1         2 LUT      0.297311
@<TRIPOS>BOND
    1     6     1 1
    2     7     2 1
    3     8     3 1
    4     9     4 1
    5    11     4 1
    6    12     6 1
    7    13     9 1
    8    16     9 1
    9    25     5 1
   10    25    16 1
   11    26    10 1
   12    26    17 1
   13    27    18 1
   14    28    14 1
   15    28    19 1
   16    29    12 1
   17    30    13 1
   18    31    24 1
   19    32     1 1
   20    32    25 1
   21    33    21 1
   22    33    26 1
   23    34    22 1
   24    34    27 1
   25    35    23 1
   26    35    28 1
   27    36    12 1
   28    36    24 1
   29    37    13 1
   30    37    15 1
   31    38    31 1
   32    39    20 1
   33    39    32 1
   34    40     2 1
   35    40    33 1
   36    41     3 1
   37    41    34 1
   38    42     4 1
   39    42    35 1
   40    43    38 1
   41    44     5 1
   42    44    17 1
   43    44    39 1
   44    45    10 1
   45    45    18 1
   46    45    40 1
   47    46    19 1
   48    46    41 1
   49    47    14 1
   50    47    16 1
   51    47    42 1
   52    48    38 1
   53    49    48 1
   54    50    49 1
   55    51    50 1
   56    52    51 1
   57    53    51 1
   58    54    53 1
   59    55    54 1
   60    56    55 1
   61    57    56 1
   62    58    56 1
   63    59    58 1
   64    60    59 1
   65    61    60 1
   66    62    61 1
   67    63    61 1
   68    64    27 1
   69    64    46 1
   70    65     5 1
   71    65    10 1
   72    65    64 1
   73    65    14 1
   74    66    23 1
   75    67    23 1
   76    68    23 1
   77    69    22 1
   78    70    22 1
   79    71    22 1
   80    72    21 1
   81    73    21 1
   82    74    21 1
   83    75    20 1
   84    76    20 1
   85    77    20 1
   86    78    15 1
   87    79    15 1
   88    80    15 1
   89    81     8 1
   90    82     8 1
   91    83     8 1
   92    84     7 1
   93    85     7 1
   94    86     6 1
   95    87     6 1
   96    88     3 1
   97    89     3 1
   98    90     1 1
   99    91     1 1
  100    92    63 1
  101    93    63 1
  102    94    63 1
  103    95    62 1
  104    96    62 1
  105    97    62 1
  106    98    60 1
  107    99    60 1
  108   100    59 1
  109   101    59 1
  110   102    58 1
  111   103    58 1
  112   104    57 1
  113   105    57 1
  114   106    57 1
  115   107    55 1
  116   108    55 1
  117   109    54 1
  118   110    54 1
  119   111    53 1
  120   112    53 1
  121   113    19 1
  122   114    18 1
  123   115    17 1
  124   116     9 1
  125   117     2 1
  126   118    52 1
  127   119    52 1
  128   120    52 1
  129   121    51 1
  130   122    50 1
  131   123    50 1
  132   124    49 1
  133   125    49 1
  134   126    48 1
  135   127    48 1
  136   128    43 1
  137   129    43 1
  138   130    43 1
  139   131    39 1
  140   132    32 1
  141   133    31 1
  142   134    61 1
  143   135    56 1
  144   136    24 1
  145   137    24 1
  146   139   138 1
  147   140   139 1
  148   141   140 1
  149   142   140 1
  150   143   142 1
  151   144   138 1
  152   144   143 1
  153   145   144 1
  154   146   145 1
  155   147   146 1
  156   148   147 1
  157   149   148 1
  158   150   149 1
  159   151   150 1
  160   152   151 1
  161   153   152 1
  162   154   138 1
  163   155   138 1
  164   156   143 1
  165   157   147 1
  166   158   151 1
  167   160   159 1
  168   161   160 1
  169   162   161 1
  170   163   161 1
  171   164   163 1
  172   165   159 1
  173   165   164 1
  174   166   165 1
  175   167   166 1
  176   168   167 1
  177   169   168 1
  178   170   169 1
  179   171   170 1
  180   172   171 1
  181   173   172 1
  182   174   153 1
  183   174   173 1
  184   175   159 1
  185   176   159 1
  186   177   164 1
  187   178   168 1
  188   179   172 1
  189   180   179 1
  190   181   179 1
  191   182   179 1
  192   183   178 1
  193   184   178 1
  194   185   178 1
  195   186   177 1
  196   187   177 1
  197   188   177 1
  198   189   176 1
  199   190   176 1
  200   191   176 1
  201   192   175 1
  202   193   175 1
  203   194   175 1
  204   195   160 1
  205   196   160 1
  206   197   158 1
  207   198   158 1
  208   199   158 1
  209   200   157 1
  210   201   157 1
  211   202   157 1
  212   203   156 1
  213   204   156 1
  214   205   156 1
  215   206   155 1
  216   207   155 1
  217   208   155 1
  218   209   154 1
  219   210   154 1
  220   211   154 1
  221   212   141 1
  222   213   146 1
  223   214   145 1
  224   215   142 1
  225   216   142 1
  226   217   174 1
  227   218   173 1
  228   219   171 1
  229   220   170 1
  230   221   169 1
  231   222   140 1
  232   223   167 1
  233   224   166 1
  234   225   165 1
  235   226   163 1
  236   227   161 1
  237   228   139 1
  238   229   139 1
  239   230   153 1
  240   231   152 1
  241   232   150 1
  242   233   149 1
  243   234   148 1
  244   235   162 1
  245   65    153 1
  246   65    174 1
@<TRIPOS>SUBSTRUCTURE
      1 CLA               1 ****               0 ****  **** 
      2 LUT             138 ****               0 ****  **** 
