@<TRIPOS>MOLECULE
Cpptraj generated mol2 file.
  235   246     2     0     0
SMALL
USER_CHARGES


@<TRIPOS>ATOM
      1 CAA        79.4939   59.3598   34.0399 a2         1 CLA     -0.055900
      2 CAB        79.3830   63.1779   42.9514 c8         1 CLA     -0.148500
      3 CAC        72.8497   58.3443   42.4657 a2         1 CLA     -0.012600
      4 CAD        75.5269   56.3914   35.1070 ck         1 CLA      0.398800
      5 NA         78.5782   59.4943   37.4377 ns         1 CLA     -0.225500
      6 CBA        80.7285   59.4014   33.1662 a2         1 CLA     -0.135000
      7 CBB        80.5227   63.5097   43.5756 c0         1 CLA     -0.395200
      8 CBC        73.0643   56.9558   43.0860 a3         1 CLA     -0.037700
      9 CBD        76.9450   57.0706   34.8100 a1         1 CLA     -0.053900
     10 NB         78.3341   61.0769   39.9972 nm         1 CLA     -0.295700
     11 OBD        74.9727   55.5278   34.3614 o2         1 CLA     -0.494600
     12 CGA        81.2143   58.1292   32.5473 c4         1 CLA      0.827000
     13 CGD        78.0243   56.0940   34.3948 c4         1 CLA      0.655300
     14 ND         75.8430   58.4690   38.0200 nm         1 CLA     -0.291600
     15 CED        79.0933   54.0774   35.1191 a3         1 CLA      0.005400
     16 CHA        77.3124   57.8728   36.0626 cs         1 CLA     -0.123800
     17 CHB        80.3013   60.9027   38.4896 aa         1 CLA     -0.291900
     18 CHC        76.9732   61.2973   42.0857 aa         1 CLA     -0.090400
     19 CHD        74.0286   58.2123   39.5781 aa         1 CLA     -0.052000
     20 CMA        82.0756   58.9132   36.8180 a3         1 CLA     -0.230700
     21 CMB        81.7101   62.6241   40.6195 a3         1 CLA     -0.180800
     22 CMC        74.7870   60.4159   44.2178 a3         1 CLA     -0.134000
     23 CMD        72.8613   56.1312   37.3172 a3         1 CLA     -0.141100
     24 C1         82.1359   56.0152   33.1485 a2         1 CLA      0.023000
     25 C1A        78.4568   58.6706   36.3733 ac         1 CLA     -0.015100
     26 C1B        79.6640   61.2818   39.7020 cr         1 CLA      0.054700
     27 C1C        75.9640   60.3863   41.8391 cn         1 CLA     -0.005600
     28 C1D        74.5941   57.9703   38.3122 ap         1 CLA     -0.047300
     29 O1A        81.1774   57.8127   31.4035 o2         1 CLA     -0.610800
     30 O1D        78.7703   56.2709   33.4433 o2         1 CLA     -0.558200
     31 C2         82.9950   55.4910   34.3267 c8         1 CLA     -0.325100
     32 C2A        79.7484   58.7236   35.4737 a1         1 CLA      0.098600
     33 C2B        80.2797   62.1922   40.6475 cb         1 CLA      0.088500
     34 C2C        74.9458   59.8856   42.7816 cb         1 CLA      0.053700
     35 C2D        74.1197   57.0156   37.3362 cb         1 CLA      0.058900
     36 O2A        81.7245   57.3055   33.5532 o1         1 CLA     -0.437200
     37 O2D        77.9343   54.9785   35.1823 o1         1 CLA     -0.357600
     38 C3         83.5364   54.3237   34.4961 c5         1 CLA      0.031200
     39 C3A        80.6801   59.5411   36.3452 a1         1 CLA      0.166800
     40 C3B        79.2520   62.4297   41.6448 cb         1 CLA      0.035000
     41 C3C        74.0819   59.0585   42.0524 cb         1 CLA     -0.089900
     42 C3D        75.1543   57.0432   36.3915 cb         1 CLA     -0.035900
     43 C4         82.8928   53.1208   35.1313 a3         1 CLA     -0.053300
     44 C4A        79.8843   59.9251   37.5668 ac         1 CLA      0.001800
     45 C4B        78.0733   61.6520   41.2775 cn         1 CLA     -0.020900
     46 C4C        74.5879   58.9659   40.6857 cr         1 CLA     -0.044400
     47 C4D        76.1714   57.8966   36.8353 c6         1 CLA     -0.046000
     48 C5         84.9990   54.1275   34.1000 a2         1 CLA     -0.070400
     49 C6         85.8974   55.2940   34.6015 a2         1 CLA      0.043900
     50 C7         85.9371   55.4254   36.1459 a2         1 CLA     -0.150000
     51 C8         86.9060   56.4901   36.7731 a1         1 CLA      0.064200
     52 C9         88.3642   56.2834   36.3897 a3         1 CLA     -0.259300
     53 C10        86.8739   56.5696   38.4034 a2         1 CLA     -0.071900
     54 C11        87.2256   57.9164   39.1743 a2         1 CLA      0.014500
     55 C12        86.9694   57.7524   40.6774 a2         1 CLA     -0.112100
     56 C13        87.0718   58.9422   41.6956 a1         1 CLA      0.089200
     57 C14        88.5223   59.5600   41.5933 a3         1 CLA     -0.239100
     58 C15        86.8379   58.4293   43.1347 a2         1 CLA     -0.102200
     59 C16        85.3531   57.9495   43.3211 a2         1 CLA      0.023900
     60 C17        85.0922   57.4140   44.7828 a2         1 CLA     -0.105700
     61 C18        85.4115   58.3890   45.9912 a1         1 CLA      0.206800
     62 C19        84.4911   59.6478   45.8327 a3         1 CLA     -0.280100
     63 C20        85.0369   57.6287   47.3245 a3         1 CLA     -0.280100
     64 NC         75.7481   59.7200   40.6050 nx         1 CLA     -0.309200
     65 MG         77.0193   59.8534   38.9405 mg         1 CLA      0.895000
     66 HMD3       72.8085   55.6690   38.3005 dc         1 CLA      0.064300
     67 HMD2       72.0229   56.8541   36.9928 dc         1 CLA      0.064300
     68 HMD1       73.1238   55.4788   36.5142 dc         1 CLA      0.064300
     69 HMC3       73.8583   61.1712   44.2912 dc         1 CLA      0.052100
     70 HMC2       74.6861   59.5879   44.9773 dc         1 CLA      0.052100
     71 HMC1       75.7033   60.9374   44.5131 dc         1 CLA      0.052100
     72 HMB3       81.9037   62.8354   39.5623 dc         1 CLA      0.063600
     73 HMB2       81.8485   63.6218   41.0695 dc         1 CLA      0.063600
     74 HMB1       82.2593   61.8568   41.1563 dc         1 CLA      0.063600
     75 HMA3       82.0766   58.3055   37.7427 dc         1 CLA      0.058300
     76 HMA2       82.3976   58.3631   35.9209 dc         1 CLA      0.058300
     77 HMA1       82.7567   59.7760   36.9288 dc         1 CLA      0.058300
     78 HED3       79.3167   53.7022   34.1459 dc         1 CLA      0.079300
     79 HED2       79.8982   54.7269   35.4482 dc         1 CLA      0.079300
     80 HED1       78.9737   53.2425   35.8522 dc         1 CLA      0.079300
     81 HBC3       73.5728   57.0713   44.0478 dc         1 CLA      0.016300
     82 HBC2       72.0874   56.5199   43.3380 dc         1 CLA      0.016300
     83 HBC1       73.6442   56.3059   42.4369 dc         1 CLA      0.016300
     84 HBB2       80.4451   64.0988   44.5143 da         1 CLA      0.183000
     85 HBB1       81.4827   63.1759   43.2063 da         1 CLA      0.183000
     86 HBA2       80.4609   60.0225   32.2704 dc         1 CLA      0.029400
     87 HBA1       81.5258   59.9150   33.7097 dc         1 CLA      0.029400
     88 HAC2       72.2496   58.8791   43.1930 dc         1 CLA      0.029300
     89 HAC1       72.1782   58.3309   41.6218 dc         1 CLA      0.029300
     90 HAA2       78.7872   58.7720   33.5715 dc         1 CLA      0.028700
     91 HAA1       78.9899   60.3332   34.1191 dc         1 CLA      0.028700
     92 H203       83.9924   57.3997   47.3456 dc         1 CLA      0.065600
     93 H202       85.4084   56.6517   47.4840 dc         1 CLA      0.065600
     94 H201       85.2659   58.4179   48.0146 dc         1 CLA      0.065600
     95 H193       84.9473   60.4790   45.2132 dc         1 CLA      0.065600
     96 H192       83.5583   59.2755   45.3442 dc         1 CLA      0.065600
     97 H191       84.2935   60.0037   46.7892 dc         1 CLA      0.065600
     98 H172       84.1569   57.0411   44.9957 dc         1 CLA      0.027600
     99 H171       85.7544   56.5578   44.8792 dc         1 CLA      0.027600
    100 H162       84.7333   58.8823   43.1688 dc         1 CLA      0.002900
    101 H161       85.0421   57.1693   42.5457 dc         1 CLA      0.002900
    102 H152       87.4862   57.5415   43.3281 dc         1 CLA      0.029100
    103 H151       87.0398   59.1830   43.8892 dc         1 CLA      0.029100
    104 H143       89.2894   58.8492   41.8847 dc         1 CLA      0.063600
    105 H142       88.6660   59.9523   40.5778 dc         1 CLA      0.063600
    106 H141       88.5159   60.4089   42.2941 dc         1 CLA      0.063600
    107 H122       85.9647   57.4273   40.6537 dc         1 CLA      0.032500
    108 H121       87.5749   56.8993   41.0253 dc         1 CLA      0.032500
    109 H112       88.3046   58.0229   39.1703 dc         1 CLA      0.006600
    110 H111       86.7906   58.7676   38.7595 dc         1 CLA      0.006600
    111 H102       85.8445   56.4708   38.6698 dc         1 CLA      0.024100
    112 H101       87.4323   55.7262   38.8053 dc         1 CLA      0.024100
    113 HHD        73.1094   57.6605   39.7441 da         1 CLA      0.174300
    114 HHC        77.0586   61.5496   43.0990 da         1 CLA      0.136800
    115 HHB        81.2801   61.4156   38.3862 da         1 CLA      0.138300
    116 HBD        76.7736   57.8791   34.0716 dc         1 CLA      0.107700
    117 HAB        78.4108   63.4755   43.3427 da         1 CLA      0.155200
    118 H93        89.1309   56.8138   37.0249 dc         1 CLA      0.069500
    119 H92        88.5447   55.2522   36.5537 dc         1 CLA      0.069500
    120 H91        88.4019   56.5095   35.2703 dc         1 CLA      0.069500
    121 H8         86.6445   57.4374   36.4159 dc         1 CLA      0.029300
    122 H72        84.9350   55.5688   36.5019 dc         1 CLA      0.044400
    123 H71        86.1553   54.3924   36.5894 dc         1 CLA      0.044400
    124 H62        86.9312   55.1003   34.1949 dc         1 CLA      0.015600
    125 H61        85.4634   56.2199   34.2420 dc         1 CLA      0.015600
    126 H52        85.3903   53.2063   34.5310 dc         1 CLA      0.033200
    127 H51        84.9953   54.0953   33.0008 dc         1 CLA      0.033200
    128 H43        83.2753   53.0354   36.1419 dc         1 CLA      0.037000
    129 H42        81.8023   53.2829   35.2219 dc         1 CLA      0.037000
    130 H41        83.0579   52.1980   34.5999 dc         1 CLA      0.037000
    131 H3A        80.9033   60.5018   35.7912 dc         1 CLA      0.041100
    132 H2A        80.1238   57.6923   35.3462 dc         1 CLA      0.083100
    133 H2         83.1559   56.2004   35.1320 da         1 CLA      0.180900
    134 H18        86.4974   58.6135   45.9988 dc         1 CLA     -0.003900
    135 H13        86.4803   59.7442   41.4590 dc         1 CLA      0.019700
    136 H12        81.2077   55.4150   32.8345 dc         1 CLA      0.120400
    137 H11        82.7041   55.9099   32.2548 dc         1 CLA      0.120400
    138 C1         69.1641   61.6499   49.6265 Z1         2 LUT      0.509236
    139 C2         67.7237   61.3841   49.9612 Z2         2 LUT     -0.434695
    140 C3         66.7939   62.5684   50.0054 Z3         2 LUT      0.437453
    141 O3         66.3305   62.8117   51.3696 S1         2 LUT     -0.547129
    142 C4         67.3867   63.9247   49.5249 Z4         2 LUT     -0.468603
    143 C5         68.3711   63.7132   48.3982 Z5         2 LUT      0.279246
    144 C6         69.1836   62.6321   48.4406 Z6         2 LUT     -0.305473
    145 C7         69.7520   62.1467   47.2229 Z7         2 LUT      0.069402
    146 C8         70.4914   62.9731   46.5211 Z8         2 LUT     -0.191631
    147 C9         71.2607   62.6276   45.2938 Z9         2 LUT      0.196698
    148 C10        72.2471   63.5087   44.8488 Y1         2 LUT     -0.208611
    149 C11        73.0285   63.5428   43.6433 Y2         2 LUT      0.030784
    150 C12        74.0037   64.5018   43.5010 Y3         2 LUT     -0.220316
    151 C13        74.9625   64.4039   42.3885 Y4         2 LUT      0.215937
    152 C14        76.2208   64.9243   42.5266 Y5         2 LUT     -0.185793
    153 C15        77.2614   65.0253   41.5005 Y6         2 LUT     -0.057835
    154 C16        69.8110   60.2314   49.3710 Y7         2 LUT     -0.405615
    155 C17        69.8527   62.1675   50.9643 Y7         2 LUT     -0.405615
    156 C18        67.9908   64.6410   47.2055 Y9         2 LUT     -0.369639
    157 C19        70.8366   61.4413   44.5457 W1         2 LUT     -0.333362
    158 C20        74.5102   63.7664   41.1246 W2         2 LUT     -0.323439
    159 C21        88.5779   66.0547   35.0662 Z1         2 LUT      0.406104
    160 C22        89.1376   65.4627   33.6873 Z2         2 LUT     -0.404965
    161 C23        89.3456   66.5221   32.6027 Z3         2 LUT      0.391255
    162 O23        89.7917   65.8638   31.4082 S1         2 LUT     -0.528210
    163 C24        88.0074   67.3565   32.4448 W6         2 LUT     -0.258361
    164 C25        87.0316   67.4289   33.3708 Z5         2 LUT      0.133546
    165 C26        87.1979   66.6320   34.6980 W8         2 LUT     -0.147008
    166 C27        86.4215   67.0848   35.9319 Z7         2 LUT      0.023843
    167 C28        85.0604   67.0250   36.1122 Z8         2 LUT     -0.216987
    168 C29        84.3860   67.4538   37.3809 Z9         2 LUT      0.206524
    169 C30        83.2468   66.7887   37.8285 Y1         2 LUT     -0.215556
    170 C31        82.5411   67.2147   39.0610 Y2         2 LUT      0.025142
    171 C32        81.4014   66.5322   39.4092 Y3         2 LUT     -0.212209
    172 C33        80.5486   66.6996   40.5462 Y4         2 LUT      0.240937
    173 C34        79.5486   65.7638   40.6492 Y5         2 LUT     -0.218862
    174 C35        78.4529   65.7453   41.6328 Y6         2 LUT     -0.023547
    175 C36        89.6006   67.1063   35.6175 Y7         2 LUT     -0.393485
    176 C37        88.4430   64.9016   36.0821 Y7         2 LUT     -0.393485
    177 C38        85.7021   68.0824   33.0407 Y9         2 LUT     -0.387526
    178 C39        84.9630   68.6805   37.9860 W1         2 LUT     -0.322618
    179 C40        80.8329   67.8980   41.5081 W2         2 LUT     -0.358472
    180 H403       80.6234   68.8837   40.9889 R7         2 LUT      0.097720
    181 H402       80.2760   67.8485   42.4501 R7         2 LUT      0.097720
    182 H401       81.8999   67.8394   41.7144 R7         2 LUT      0.097720
    183 H393       85.5055   69.2495   37.2758 R4         2 LUT      0.082505
    184 H392       84.2056   69.2416   38.4430 R4         2 LUT      0.082505
    185 H391       85.6934   68.4397   38.7604 R4         2 LUT      0.082505
    186 H383       85.0727   67.3643   32.5503 R1         2 LUT      0.104030
    187 H382       85.1653   68.4296   33.9323 R1         2 LUT      0.104030
    188 H381       85.7788   68.7481   32.1809 R1         2 LUT      0.104030
    189 H373       87.9854   63.9679   35.7107 T4         2 LUT      0.089537
    190 H372       89.4117   64.4624   36.2443 T4         2 LUT      0.089537
    191 H371       88.0588   65.1462   37.0699 T4         2 LUT      0.089537
    192 H363       89.4996   67.4774   36.6273 T4         2 LUT      0.089537
    193 H362       90.6665   66.7111   35.5659 T4         2 LUT      0.089537
    194 H361       89.7094   67.9848   35.0274 T4         2 LUT      0.089537
    195 H222       90.1557   64.9826   33.9097 U2         2 LUT      0.127376
    196 H221       88.5555   64.6273   33.3192 U2         2 LUT      0.127376
    197 H203       75.1860   63.9262   40.2757 R7         2 LUT      0.087068
    198 H202       74.4402   62.6733   41.3356 R7         2 LUT      0.087068
    199 H201       73.5047   64.0279   40.7795 R7         2 LUT      0.087068
    200 H193       69.7980   61.3264   44.6763 R4         2 LUT      0.089716
    201 H192       71.0053   61.5085   43.4745 R4         2 LUT      0.089716
    202 H191       71.3045   60.4935   44.8191 R4         2 LUT      0.089716
    203 H183       66.9809   64.5080   46.9468 R1         2 LUT      0.094572
    204 H182       68.2473   65.6725   47.4844 R1         2 LUT      0.094572
    205 H181       68.5914   64.5197   46.2929 R1         2 LUT      0.094572
    206 H173       69.2951   62.8932   51.5508 T4         2 LUT      0.093752
    207 H172       69.9080   61.2936   51.6071 T4         2 LUT      0.093752
    208 H171       70.8534   62.4407   50.7894 T4         2 LUT      0.093752
    209 H163       70.9179   60.2187   49.2174 T4         2 LUT      0.093752
    210 H162       69.5447   59.5801   50.2746 T4         2 LUT      0.093752
    211 H161       69.3770   59.7661   48.5275 T4         2 LUT      0.093752
    212 HO3        65.3531   62.8633   51.3425 Q1         2 LUT      0.300121
    213 H8         70.6336   64.0128   46.8048 U7         2 LUT      0.080784
    214 H7         69.5217   61.1794   46.8885 U6         2 LUT      0.042190
    215 H42        66.6050   64.5999   49.1821 U5         2 LUT      0.145166
    216 H41        67.8581   64.3414   50.4192 U5         2 LUT      0.145166
    217 H35        78.5967   66.2102   42.5822 T3         2 LUT      0.077919
    218 H34        79.4326   65.0662   39.8056 T2         2 LUT      0.073626
    219 H32        81.0070   65.7775   38.6661 T1         2 LUT      0.092510
    220 H31        82.9233   68.0502   39.6107 U9         2 LUT      0.070048
    221 H30        82.8777   65.9983   37.1927 U8         2 LUT      0.085442
    222 H3         65.9034   62.3335   49.3604 U3         2 LUT     -0.031596
    223 H28        84.5437   66.4924   35.3513 U7         2 LUT      0.084728
    224 H27        87.0915   67.6559   36.6220 U6         2 LUT      0.087291
    225 H26        86.6072   65.7592   34.5329 Q6         2 LUT      0.075325
    226 H24        87.7841   67.7786   31.4260 Q5         2 LUT      0.094482
    227 H23        90.0810   67.2305   33.0025 U3         2 LUT     -0.024869
    228 H22        67.3583   60.7433   49.1816 U2         2 LUT      0.127376
    229 H21        67.7471   60.7827   50.8974 U2         2 LUT      0.127376
    230 H15        77.2331   64.4282   40.5766 T3         2 LUT      0.093200
    231 H14        76.4868   65.3519   43.4577 T2         2 LUT      0.068865
    232 H12        74.2844   65.2572   44.2720 T1         2 LUT      0.095507
    233 H11        73.0256   62.7699   42.8578 U9         2 LUT      0.068930
    234 H10        72.3320   64.3278   45.6055 U8         2 LUT      0.083911
    235 H1         90.3088   66.4663   30.9023 Q1         2 LUT      0.297311
@<TRIPOS>BOND
    1     6     1 1
    2     7     2 1
    3     8     3 1
    4     9     4 1
    5    11     4 1
    6    12     6 1
    7    13     9 1
    8    16     9 1
    9    25     5 1
   10    25    16 1
   11    26    10 1
   12    26    17 1
   13    27    18 1
   14    28    14 1
   15    28    19 1
   16    29    12 1
   17    30    13 1
   18    31    24 1
   19    32     1 1
   20    32    25 1
   21    33    21 1
   22    33    26 1
   23    34    22 1
   24    34    27 1
   25    35    23 1
   26    35    28 1
   27    36    12 1
   28    36    24 1
   29    37    13 1
   30    37    15 1
   31    38    31 1
   32    39    20 1
   33    39    32 1
   34    40     2 1
   35    40    33 1
   36    41     3 1
   37    41    34 1
   38    42     4 1
   39    42    35 1
   40    43    38 1
   41    44     5 1
   42    44    17 1
   43    44    39 1
   44    45    10 1
   45    45    18 1
   46    45    40 1
   47    46    19 1
   48    46    41 1
   49    47    14 1
   50    47    16 1
   51    47    42 1
   52    48    38 1
   53    49    48 1
   54    50    49 1
   55    51    50 1
   56    52    51 1
   57    53    51 1
   58    54    53 1
   59    55    54 1
   60    56    55 1
   61    57    56 1
   62    58    56 1
   63    59    58 1
   64    60    59 1
   65    61    60 1
   66    62    61 1
   67    63    61 1
   68    64    27 1
   69    64    46 1
   70    65     5 1
   71    65    10 1
   72    65    64 1
   73    65    14 1
   74    66    23 1
   75    67    23 1
   76    68    23 1
   77    69    22 1
   78    70    22 1
   79    71    22 1
   80    72    21 1
   81    73    21 1
   82    74    21 1
   83    75    20 1
   84    76    20 1
   85    77    20 1
   86    78    15 1
   87    79    15 1
   88    80    15 1
   89    81     8 1
   90    82     8 1
   91    83     8 1
   92    84     7 1
   93    85     7 1
   94    86     6 1
   95    87     6 1
   96    88     3 1
   97    89     3 1
   98    90     1 1
   99    91     1 1
  100    92    63 1
  101    93    63 1
  102    94    63 1
  103    95    62 1
  104    96    62 1
  105    97    62 1
  106    98    60 1
  107    99    60 1
  108   100    59 1
  109   101    59 1
  110   102    58 1
  111   103    58 1
  112   104    57 1
  113   105    57 1
  114   106    57 1
  115   107    55 1
  116   108    55 1
  117   109    54 1
  118   110    54 1
  119   111    53 1
  120   112    53 1
  121   113    19 1
  122   114    18 1
  123   115    17 1
  124   116     9 1
  125   117     2 1
  126   118    52 1
  127   119    52 1
  128   120    52 1
  129   121    51 1
  130   122    50 1
  131   123    50 1
  132   124    49 1
  133   125    49 1
  134   126    48 1
  135   127    48 1
  136   128    43 1
  137   129    43 1
  138   130    43 1
  139   131    39 1
  140   132    32 1
  141   133    31 1
  142   134    61 1
  143   135    56 1
  144   136    24 1
  145   137    24 1
  146   139   138 1
  147   140   139 1
  148   141   140 1
  149   142   140 1
  150   143   142 1
  151   144   138 1
  152   144   143 1
  153   145   144 1
  154   146   145 1
  155   147   146 1
  156   148   147 1
  157   149   148 1
  158   150   149 1
  159   151   150 1
  160   152   151 1
  161   153   152 1
  162   154   138 1
  163   155   138 1
  164   156   143 1
  165   157   147 1
  166   158   151 1
  167   160   159 1
  168   161   160 1
  169   162   161 1
  170   163   161 1
  171   164   163 1
  172   165   159 1
  173   165   164 1
  174   166   165 1
  175   167   166 1
  176   168   167 1
  177   169   168 1
  178   170   169 1
  179   171   170 1
  180   172   171 1
  181   173   172 1
  182   174   153 1
  183   174   173 1
  184   175   159 1
  185   176   159 1
  186   177   164 1
  187   178   168 1
  188   179   172 1
  189   180   179 1
  190   181   179 1
  191   182   179 1
  192   183   178 1
  193   184   178 1
  194   185   178 1
  195   186   177 1
  196   187   177 1
  197   188   177 1
  198   189   176 1
  199   190   176 1
  200   191   176 1
  201   192   175 1
  202   193   175 1
  203   194   175 1
  204   195   160 1
  205   196   160 1
  206   197   158 1
  207   198   158 1
  208   199   158 1
  209   200   157 1
  210   201   157 1
  211   202   157 1
  212   203   156 1
  213   204   156 1
  214   205   156 1
  215   206   155 1
  216   207   155 1
  217   208   155 1
  218   209   154 1
  219   210   154 1
  220   211   154 1
  221   212   141 1
  222   213   146 1
  223   214   145 1
  224   215   142 1
  225   216   142 1
  226   217   174 1
  227   218   173 1
  228   219   171 1
  229   220   170 1
  230   221   169 1
  231   222   140 1
  232   223   167 1
  233   224   166 1
  234   225   165 1
  235   226   163 1
  236   227   161 1
  237   228   139 1
  238   229   139 1
  239   230   153 1
  240   231   152 1
  241   232   150 1
  242   233   149 1
  243   234   148 1
  244   235   162 1
  245   65    153 1
  246   65    174 1
@<TRIPOS>SUBSTRUCTURE
      1 CLA               1 ****               0 ****  **** 
      2 LUT             138 ****               0 ****  **** 
