@<TRIPOS>MOLECULE
Cpptraj generated mol2 file.
  235   246     2     0     0
SMALL
USER_CHARGES


@<TRIPOS>ATOM
      1 CAA        79.6573   58.4194   34.6156 a2         1 CLA     -0.055900
      2 CAB        79.3272   62.1729   43.6707 c8         1 CLA     -0.148500
      3 CAC        72.5041   57.8838   42.6793 a2         1 CLA     -0.012600
      4 CAD        75.3271   55.9545   35.5229 ck         1 CLA      0.398800
      5 NA         78.5638   58.7692   37.9276 ns         1 CLA     -0.225500
      6 CBA        80.9889   58.2740   33.8839 a2         1 CLA     -0.135000
      7 CBB        80.1640   63.2176   43.8790 c0         1 CLA     -0.395200
      8 CBC        72.7337   56.3580   42.5909 a3         1 CLA     -0.037700
      9 CBD        76.7538   56.5578   35.2426 a1         1 CLA     -0.053900
     10 NB         78.3718   60.1584   40.5630 nm         1 CLA     -0.295700
     11 OBD        74.7007   55.2843   34.7645 o2         1 CLA     -0.494600
     12 CGA        81.5090   56.8552   33.4787 c4         1 CLA      0.827000
     13 CGD        77.7333   55.4678   34.9008 c4         1 CLA      0.655300
     14 ND         75.6249   57.9114   38.4037 nm         1 CLA     -0.291600
     15 CED        78.6071   53.2876   35.4891 a3         1 CLA      0.005400
     16 CHA        77.1313   57.4013   36.4537 cs         1 CLA     -0.123800
     17 CHB        80.2848   60.1485   39.0284 aa         1 CLA     -0.291900
     18 CHC        76.9364   60.5836   42.4669 aa         1 CLA     -0.090400
     19 CHD        73.7927   57.8923   39.9022 aa         1 CLA     -0.052000
     20 CMA        81.9120   57.7946   37.5181 a3         1 CLA     -0.230700
     21 CMB        81.7903   61.6604   41.4021 a3         1 CLA     -0.180800
     22 CMC        74.2328   60.2302   44.3666 a3         1 CLA     -0.134000
     23 CMD        72.5429   56.0193   37.5908 a3         1 CLA     -0.141100
     24 C1         82.4941   54.8657   34.1267 a2         1 CLA      0.023000
     25 C1A        78.3924   58.0006   36.7959 ac         1 CLA     -0.015100
     26 C1B        79.6653   60.5365   40.2129 cr         1 CLA      0.054700
     27 C1C        75.7747   59.8015   42.1705 cn         1 CLA     -0.005600
     28 C1D        74.3528   57.4861   38.7302 ap         1 CLA     -0.047300
     29 O1A        81.0308   56.2362   32.5253 o2         1 CLA     -0.610800
     30 O1D        78.4026   55.4619   33.8699 o2         1 CLA     -0.558200
     31 C2         83.1619   54.4059   35.3169 c8         1 CLA     -0.325100
     32 C2A        79.7543   57.8643   35.9926 a1         1 CLA      0.098600
     33 C2B        80.2983   61.2976   41.3486 cb         1 CLA      0.088500
     34 C2C        74.5414   59.5297   43.0308 cb         1 CLA      0.053700
     35 C2D        73.8978   56.6214   37.7222 cb         1 CLA      0.058900
     36 O2A        82.2942   56.2490   34.4191 o1         1 CLA     -0.437200
     37 O2D        77.8264   54.4620   35.8529 o1         1 CLA     -0.357600
     38 C3         84.3858   53.9204   35.4176 c5         1 CLA      0.031200
     39 C3A        80.7627   58.7131   36.9248 a1         1 CLA      0.166800
     40 C3B        79.2695   61.4580   42.3499 cb         1 CLA      0.035000
     41 C3C        73.7159   58.6563   42.2652 cb         1 CLA     -0.089900
     42 C3D        74.9554   56.5447   36.7939 cb         1 CLA     -0.035900
     43 C4         84.7420   52.4100   35.1809 a3         1 CLA     -0.053300
     44 C4A        79.8400   59.3033   38.0387 ac         1 CLA      0.001800
     45 C4B        78.1521   60.7382   41.8008 cn         1 CLA     -0.020900
     46 C4C        74.3906   58.5466   41.0280 cr         1 CLA     -0.044400
     47 C4D        76.0017   57.3000   37.2783 c6         1 CLA     -0.046000
     48 C5         85.5112   54.7987   35.7603 a2         1 CLA     -0.070400
     49 C6         85.4303   55.4908   37.1282 a2         1 CLA      0.043900
     50 C7         86.5403   56.6375   37.1206 a2         1 CLA     -0.150000
     51 C8         86.7237   57.4404   38.3968 a1         1 CLA      0.064200
     52 C9         87.6343   58.6528   38.0166 a3         1 CLA     -0.259300
     53 C10        87.4607   56.6032   39.4141 a2         1 CLA     -0.071900
     54 C11        87.3790   57.1673   40.8637 a2         1 CLA      0.014500
     55 C12        88.3004   56.4248   41.8556 a2         1 CLA     -0.112100
     56 C13        88.2976   56.9450   43.3004 a1         1 CLA      0.089200
     57 C14        89.4633   56.2463   44.0958 a3         1 CLA     -0.239100
     58 C15        86.9203   56.7522   43.9935 a2         1 CLA     -0.102200
     59 C16        86.9356   57.3758   45.3872 a2         1 CLA      0.023900
     60 C17        85.5794   57.2183   46.0811 a2         1 CLA     -0.105700
     61 C18        85.3503   58.1026   47.3027 a1         1 CLA      0.206800
     62 C19        83.9593   58.0554   47.7368 a3         1 CLA     -0.280100
     63 C20        86.2785   57.8060   48.5559 a3         1 CLA     -0.280100
     64 NC         75.5902   59.1977   40.9598 nx         1 CLA     -0.309200
     65 MG         76.9710   59.1887   39.3187 mg         1 CLA      0.895000
     66 HMD3       72.5463   55.1036   37.0443 dc         1 CLA      0.064300
     67 HMD2       72.1167   55.7307   38.5686 dc         1 CLA      0.064300
     68 HMD1       71.8965   56.6967   37.0859 dc         1 CLA      0.064300
     69 HMC3       74.6377   59.7180   45.2038 dc         1 CLA      0.052100
     70 HMC2       74.6683   61.2586   44.3042 dc         1 CLA      0.052100
     71 HMC1       73.1435   60.2762   44.6433 dc         1 CLA      0.052100
     72 HMB3       81.7519   62.2570   40.4566 dc         1 CLA      0.063600
     73 HMB2       82.0984   62.2456   42.2745 dc         1 CLA      0.063600
     74 HMB1       82.4672   60.7606   41.2241 dc         1 CLA      0.063600
     75 HMA3       81.3866   57.0752   38.0794 dc         1 CLA      0.058300
     76 HMA2       82.3973   57.3813   36.6553 dc         1 CLA      0.058300
     77 HMA1       82.5093   58.2999   38.2645 dc         1 CLA      0.058300
     78 HED3       78.2696   52.6679   34.6641 dc         1 CLA      0.079300
     79 HED2       79.5743   53.6356   35.2331 dc         1 CLA      0.079300
     80 HED1       78.8051   52.7082   36.4364 dc         1 CLA      0.079300
     81 HBC3       71.9612   55.8894   43.2882 dc         1 CLA      0.016300
     82 HBC2       72.5864   55.9479   41.6516 dc         1 CLA      0.016300
     83 HBC1       73.7130   56.2221   42.9872 dc         1 CLA      0.016300
     84 HBB2       80.0633   63.7647   44.7904 da         1 CLA      0.183000
     85 HBB1       80.7790   63.5879   43.0681 da         1 CLA      0.183000
     86 HBA2       80.8796   58.7568   32.8803 dc         1 CLA      0.029400
     87 HBA1       81.8536   58.7719   34.3529 dc         1 CLA      0.029400
     88 HAC2       72.3058   58.0806   43.7640 dc         1 CLA      0.029300
     89 HAC1       71.6103   58.2552   42.2201 dc         1 CLA      0.029300
     90 HAA2       78.7748   58.0614   34.1522 dc         1 CLA      0.028700
     91 HAA1       79.5264   59.4880   34.6645 dc         1 CLA      0.028700
     92 H203       86.1384   56.8087   49.0018 dc         1 CLA      0.065600
     93 H202       87.3028   57.8424   48.1521 dc         1 CLA      0.065600
     94 H201       86.0805   58.6476   49.2221 dc         1 CLA      0.065600
     95 H193       83.3177   58.2776   46.8189 dc         1 CLA      0.065600
     96 H192       83.6653   57.0653   48.1905 dc         1 CLA      0.065600
     97 H191       83.7565   58.7770   48.5306 dc         1 CLA      0.065600
     98 H172       84.8563   57.4897   45.3164 dc         1 CLA      0.027600
     99 H171       85.4622   56.1678   46.3593 dc         1 CLA      0.027600
    100 H162       87.7668   57.0131   46.1304 dc         1 CLA      0.002900
    101 H161       87.0515   58.4602   45.3461 dc         1 CLA      0.002900
    102 H152       86.0904   57.0612   43.4674 dc         1 CLA      0.029100
    103 H151       86.8137   55.6637   44.0817 dc         1 CLA      0.029100
    104 H143       90.3769   56.4103   43.4517 dc         1 CLA      0.063600
    105 H142       89.6597   56.7925   45.0954 dc         1 CLA      0.063600
    106 H141       89.2897   55.1995   44.3890 dc         1 CLA      0.063600
    107 H122       88.1420   55.3446   41.8246 dc         1 CLA      0.032500
    108 H121       89.2926   56.5948   41.4192 dc         1 CLA      0.032500
    109 H112       87.6692   58.2314   40.8864 dc         1 CLA      0.006600
    110 H111       86.4249   57.2047   41.2548 dc         1 CLA      0.006600
    111 H102       86.8659   55.6557   39.5761 dc         1 CLA      0.024100
    112 H101       88.4937   56.2452   39.1807 dc         1 CLA      0.024100
    113 HHD        72.7307   57.4761   39.9777 da         1 CLA      0.174300
    114 HHC        76.9675   60.8836   43.4919 da         1 CLA      0.136800
    115 HHB        81.3637   60.4070   39.0206 da         1 CLA      0.138300
    116 HBD        76.6827   57.1269   34.3424 dc         1 CLA      0.107700
    117 HAB        78.6278   61.9466   44.5097 da         1 CLA      0.155200
    118 H93        87.8141   59.5022   38.7190 dc         1 CLA      0.069500
    119 H92        88.6116   58.2391   37.8498 dc         1 CLA      0.069500
    120 H91        87.3100   59.1598   37.1314 dc         1 CLA      0.069500
    121 H8         85.7946   57.8550   38.8881 dc         1 CLA      0.029300
    122 H72        87.4535   56.0938   36.9256 dc         1 CLA      0.044400
    123 H71        86.1834   57.2656   36.2987 dc         1 CLA      0.044400
    124 H62        84.4641   55.9494   37.2201 dc         1 CLA      0.015600
    125 H61        85.6250   54.7945   37.9776 dc         1 CLA      0.015600
    126 H52        86.4776   54.2164   35.7504 dc         1 CLA      0.033200
    127 H51        85.5506   55.5360   34.9491 dc         1 CLA      0.033200
    128 H43        83.7379   52.0275   35.1336 dc         1 CLA      0.037000
    129 H42        85.2976   52.2957   34.2318 dc         1 CLA      0.037000
    130 H41        85.3714   52.1993   36.0324 dc         1 CLA      0.037000
    131 H3A        81.0998   59.5503   36.3191 dc         1 CLA      0.041100
    132 H2A        80.0089   56.8608   35.9374 dc         1 CLA      0.083100
    133 H2         82.6333   54.5734   36.1949 da         1 CLA      0.180900
    134 H18        85.5538   59.1409   47.0090 dc         1 CLA     -0.003900
    135 H13        88.5422   57.9903   43.2039 dc         1 CLA      0.019700
    136 H12        81.6089   54.2509   33.9365 dc         1 CLA      0.120400
    137 H11        82.9971   54.7549   33.2263 dc         1 CLA      0.120400
    138 C1         69.4452   60.8162   49.6398 Z1         2 LUT      0.509236
    139 C2         69.2266   61.6673   50.9306 Z2         2 LUT     -0.434695
    140 C3         67.7617   62.0602   51.0168 Z3         2 LUT      0.437453
    141 O3         67.5544   62.7418   52.3046 S1         2 LUT     -0.547129
    142 C4         67.3205   62.9004   49.8596 Z4         2 LUT     -0.468603
    143 C5         67.7795   62.4146   48.4994 Z5         2 LUT      0.279246
    144 C6         68.8097   61.4648   48.3990 Z6         2 LUT     -0.305473
    145 C7         69.5487   61.3785   47.1241 Z7         2 LUT      0.069402
    146 C8         70.4268   62.2182   46.4835 Z8         2 LUT     -0.191631
    147 C9         71.0775   61.9914   45.1269 Z9         2 LUT      0.196698
    148 C10        72.1101   62.7886   44.7010 Y1         2 LUT     -0.208611
    149 C11        72.7922   62.9263   43.4378 Y2         2 LUT      0.030784
    150 C12        73.9679   63.6207   43.3010 Y3         2 LUT     -0.220316
    151 C13        74.8368   63.5900   42.1358 Y4         2 LUT      0.215937
    152 C14        76.0655   64.1355   42.2390 Y5         2 LUT     -0.185793
    153 C15        77.1637   64.0570   41.3798 Y6         2 LUT     -0.057835
    154 C16        68.9108   59.3717   49.9512 Y7         2 LUT     -0.405615
    155 C17        70.9478   60.4562   49.4898 Y7         2 LUT     -0.405615
    156 C18        67.4160   63.4388   47.4816 Y9         2 LUT     -0.369639
    157 C19        70.5169   60.9153   44.1479 W1         2 LUT     -0.333362
    158 C20        74.3070   62.8539   40.8943 W2         2 LUT     -0.323439
    159 C21        88.1768   65.8929   35.5593 Z1         2 LUT      0.406104
    160 C22        89.0064   65.0504   34.5567 Z2         2 LUT     -0.404965
    161 C23        89.5234   65.8230   33.3687 Z3         2 LUT      0.391255
    162 O23        90.1260   64.9128   32.5055 S1         2 LUT     -0.528210
    163 C24        88.3398   66.6159   32.8375 W6         2 LUT     -0.258361
    164 C25        87.1402   66.8406   33.3674 Z5         2 LUT      0.133546
    165 C26        86.7885   66.2636   34.7467 W8         2 LUT     -0.147008
    166 C27        85.8170   67.1199   35.5834 Z7         2 LUT      0.023843
    167 C28        84.6871   66.7464   36.1946 Z8         2 LUT     -0.216987
    168 C29        84.0760   67.1701   37.4457 Z9         2 LUT      0.206524
    169 C30        83.1701   66.2593   37.9634 Y1         2 LUT     -0.215556
    170 C31        82.4951   66.2722   39.1731 Y2         2 LUT      0.025142
    171 C32        81.5470   65.3497   39.6135 Y3         2 LUT     -0.212209
    172 C33        80.5421   65.4569   40.6458 Y4         2 LUT      0.240937
    173 C34        79.4694   64.5559   40.6666 Y5         2 LUT     -0.218862
    174 C35        78.3360   64.6980   41.4896 Y6         2 LUT     -0.023547
    175 C36        89.0258   67.1047   36.1798 Y7         2 LUT     -0.393485
    176 C37        87.8831   64.9716   36.7769 Y7         2 LUT     -0.393485
    177 C38        86.0830   67.7070   32.6686 Y9         2 LUT     -0.387526
    178 C39        84.4825   68.5309   37.9586 W1         2 LUT     -0.322618
    179 C40        80.8006   66.5429   41.6234 W2         2 LUT     -0.358472
    180 H403       81.8904   66.6349   41.8388 R7         2 LUT      0.097720
    181 H402       80.5453   67.5798   41.3083 R7         2 LUT      0.097720
    182 H401       80.3703   66.5348   42.6844 R7         2 LUT      0.097720
    183 H393       84.5508   69.2731   37.1453 R4         2 LUT      0.082505
    184 H392       83.6833   68.9012   38.5958 R4         2 LUT      0.082505
    185 H391       85.4590   68.4958   38.4042 R4         2 LUT      0.082505
    186 H383       86.4691   67.8840   31.6720 R1         2 LUT      0.104030
    187 H382       85.2219   67.1547   32.5124 R1         2 LUT      0.104030
    188 H381       85.8303   68.6974   33.0974 R1         2 LUT      0.104030
    189 H373       88.8549   64.6680   37.2455 T4         2 LUT      0.089537
    190 H372       87.2863   65.4424   37.5596 T4         2 LUT      0.089537
    191 H371       87.4690   64.0630   36.4513 T4         2 LUT      0.089537
    192 H363       89.8749   66.7718   36.7234 T4         2 LUT      0.089537
    193 H362       89.3461   67.7263   35.3229 T4         2 LUT      0.089537
    194 H361       88.4755   67.7426   36.7492 T4         2 LUT      0.089537
    195 H222       89.8715   64.7407   35.1527 U2         2 LUT      0.127376
    196 H221       88.4647   64.1944   34.2331 U2         2 LUT      0.127376
    197 H203       73.3303   63.3602   40.5935 R7         2 LUT      0.087068
    198 H202       74.9441   62.9589   39.9880 R7         2 LUT      0.087068
    199 H201       74.0639   61.8510   41.1020 R7         2 LUT      0.087068
    200 H193       71.2307   60.1164   43.9229 R4         2 LUT      0.089716
    201 H192       69.6480   60.3714   44.5808 R4         2 LUT      0.089716
    202 H191       70.2086   61.3239   43.1694 R4         2 LUT      0.089716
    203 H183       67.8503   63.2484   46.4790 R1         2 LUT      0.094572
    204 H182       66.2902   63.5687   47.4663 R1         2 LUT      0.094572
    205 H181       67.8401   64.4171   47.6266 R1         2 LUT      0.094572
    206 H173       71.4595   61.3701   49.1732 T4         2 LUT      0.093752
    207 H172       71.3892   60.0580   50.2965 T4         2 LUT      0.093752
    208 H171       71.0352   59.7842   48.6850 T4         2 LUT      0.093752
    209 H163       69.3947   58.9398   50.8226 T4         2 LUT      0.093752
    210 H162       67.7794   59.2711   50.0635 T4         2 LUT      0.093752
    211 H161       69.0815   58.6592   49.1849 T4         2 LUT      0.093752
    212 HO3        67.0005   62.1967   52.8395 Q1         2 LUT      0.300121
    213 H8         70.7623   63.1415   46.9699 U7         2 LUT      0.080784
    214 H7         69.3783   60.4039   46.6852 U6         2 LUT      0.042190
    215 H42        66.2339   62.8367   49.8108 U5         2 LUT      0.145166
    216 H41        67.5944   63.9180   50.1310 U5         2 LUT      0.145166
    217 H35        78.4908   65.4440   42.1632 T3         2 LUT      0.077919
    218 H34        79.3695   63.8198   39.8400 T2         2 LUT      0.073626
    219 H32        81.4876   64.3526   39.1274 T1         2 LUT      0.092510
    220 H31        82.6108   67.1927   39.7321 U9         2 LUT      0.070048
    221 H30        83.0824   65.2533   37.4761 U8         2 LUT      0.085442
    222 H3         67.3010   61.0663   50.9608 U3         2 LUT     -0.031596
    223 H28        84.2307   65.7666   35.9047 U7         2 LUT      0.084728
    224 H27        86.3409   67.8972   36.0852 U6         2 LUT      0.087291
    225 H26        86.3102   65.3368   34.4690 Q6         2 LUT      0.075325
    226 H24        88.4207   67.1852   31.8867 Q5         2 LUT      0.094482
    227 H23        90.2671   66.4643   33.8171 U3         2 LUT     -0.024869
    228 H22        69.6797   61.1223   51.7592 U2         2 LUT      0.127376
    229 H21        69.8204   62.6146   50.8408 U2         2 LUT      0.127376
    230 H15        77.0871   63.4100   40.5404 T3         2 LUT      0.093200
    231 H14        76.3002   64.6787   43.1398 T2         2 LUT      0.068865
    232 H12        74.5168   63.9577   44.1767 T1         2 LUT      0.095507
    233 H11        72.3464   62.3072   42.6319 U9         2 LUT      0.068930
    234 H10        72.5235   63.4626   45.5294 U8         2 LUT      0.083911
    235 H1         90.5678   65.4725   31.8619 Q1         2 LUT      0.297311
@<TRIPOS>BOND
    1     6     1 1
    2     7     2 1
    3     8     3 1
    4     9     4 1
    5    11     4 1
    6    12     6 1
    7    13     9 1
    8    16     9 1
    9    25     5 1
   10    25    16 1
   11    26    10 1
   12    26    17 1
   13    27    18 1
   14    28    14 1
   15    28    19 1
   16    29    12 1
   17    30    13 1
   18    31    24 1
   19    32     1 1
   20    32    25 1
   21    33    21 1
   22    33    26 1
   23    34    22 1
   24    34    27 1
   25    35    23 1
   26    35    28 1
   27    36    12 1
   28    36    24 1
   29    37    13 1
   30    37    15 1
   31    38    31 1
   32    39    20 1
   33    39    32 1
   34    40     2 1
   35    40    33 1
   36    41     3 1
   37    41    34 1
   38    42     4 1
   39    42    35 1
   40    43    38 1
   41    44     5 1
   42    44    17 1
   43    44    39 1
   44    45    10 1
   45    45    18 1
   46    45    40 1
   47    46    19 1
   48    46    41 1
   49    47    14 1
   50    47    16 1
   51    47    42 1
   52    48    38 1
   53    49    48 1
   54    50    49 1
   55    51    50 1
   56    52    51 1
   57    53    51 1
   58    54    53 1
   59    55    54 1
   60    56    55 1
   61    57    56 1
   62    58    56 1
   63    59    58 1
   64    60    59 1
   65    61    60 1
   66    62    61 1
   67    63    61 1
   68    64    27 1
   69    64    46 1
   70    65     5 1
   71    65    10 1
   72    65    64 1
   73    65    14 1
   74    66    23 1
   75    67    23 1
   76    68    23 1
   77    69    22 1
   78    70    22 1
   79    71    22 1
   80    72    21 1
   81    73    21 1
   82    74    21 1
   83    75    20 1
   84    76    20 1
   85    77    20 1
   86    78    15 1
   87    79    15 1
   88    80    15 1
   89    81     8 1
   90    82     8 1
   91    83     8 1
   92    84     7 1
   93    85     7 1
   94    86     6 1
   95    87     6 1
   96    88     3 1
   97    89     3 1
   98    90     1 1
   99    91     1 1
  100    92    63 1
  101    93    63 1
  102    94    63 1
  103    95    62 1
  104    96    62 1
  105    97    62 1
  106    98    60 1
  107    99    60 1
  108   100    59 1
  109   101    59 1
  110   102    58 1
  111   103    58 1
  112   104    57 1
  113   105    57 1
  114   106    57 1
  115   107    55 1
  116   108    55 1
  117   109    54 1
  118   110    54 1
  119   111    53 1
  120   112    53 1
  121   113    19 1
  122   114    18 1
  123   115    17 1
  124   116     9 1
  125   117     2 1
  126   118    52 1
  127   119    52 1
  128   120    52 1
  129   121    51 1
  130   122    50 1
  131   123    50 1
  132   124    49 1
  133   125    49 1
  134   126    48 1
  135   127    48 1
  136   128    43 1
  137   129    43 1
  138   130    43 1
  139   131    39 1
  140   132    32 1
  141   133    31 1
  142   134    61 1
  143   135    56 1
  144   136    24 1
  145   137    24 1
  146   139   138 1
  147   140   139 1
  148   141   140 1
  149   142   140 1
  150   143   142 1
  151   144   138 1
  152   144   143 1
  153   145   144 1
  154   146   145 1
  155   147   146 1
  156   148   147 1
  157   149   148 1
  158   150   149 1
  159   151   150 1
  160   152   151 1
  161   153   152 1
  162   154   138 1
  163   155   138 1
  164   156   143 1
  165   157   147 1
  166   158   151 1
  167   160   159 1
  168   161   160 1
  169   162   161 1
  170   163   161 1
  171   164   163 1
  172   165   159 1
  173   165   164 1
  174   166   165 1
  175   167   166 1
  176   168   167 1
  177   169   168 1
  178   170   169 1
  179   171   170 1
  180   172   171 1
  181   173   172 1
  182   174   153 1
  183   174   173 1
  184   175   159 1
  185   176   159 1
  186   177   164 1
  187   178   168 1
  188   179   172 1
  189   180   179 1
  190   181   179 1
  191   182   179 1
  192   183   178 1
  193   184   178 1
  194   185   178 1
  195   186   177 1
  196   187   177 1
  197   188   177 1
  198   189   176 1
  199   190   176 1
  200   191   176 1
  201   192   175 1
  202   193   175 1
  203   194   175 1
  204   195   160 1
  205   196   160 1
  206   197   158 1
  207   198   158 1
  208   199   158 1
  209   200   157 1
  210   201   157 1
  211   202   157 1
  212   203   156 1
  213   204   156 1
  214   205   156 1
  215   206   155 1
  216   207   155 1
  217   208   155 1
  218   209   154 1
  219   210   154 1
  220   211   154 1
  221   212   141 1
  222   213   146 1
  223   214   145 1
  224   215   142 1
  225   216   142 1
  226   217   174 1
  227   218   173 1
  228   219   171 1
  229   220   170 1
  230   221   169 1
  231   222   140 1
  232   223   167 1
  233   224   166 1
  234   225   165 1
  235   226   163 1
  236   227   161 1
  237   228   139 1
  238   229   139 1
  239   230   153 1
  240   231   152 1
  241   232   150 1
  242   233   149 1
  243   234   148 1
  244   235   162 1
  245   65    153 1
  246   65    174 1
@<TRIPOS>SUBSTRUCTURE
      1 CLA               1 ****               0 ****  **** 
      2 LUT             138 ****               0 ****  **** 
