@<TRIPOS>MOLECULE
Cpptraj generated mol2 file.
  235   246     2     0     0
SMALL
USER_CHARGES


@<TRIPOS>ATOM
      1 CAA        79.9408   59.1129   32.9444 a2         1 CLA     -0.055900
      2 CAB        79.8921   62.2012   42.2546 c8         1 CLA     -0.148500
      3 CAC        72.8789   58.5624   41.4126 a2         1 CLA     -0.012600
      4 CAD        75.8109   56.2746   34.0218 ck         1 CLA      0.398800
      5 NA         78.7436   59.3611   36.3306 ns         1 CLA     -0.225500
      6 CBA        81.2288   58.9299   32.0374 a2         1 CLA     -0.135000
      7 CBB        81.0671   62.2334   42.9199 c0         1 CLA     -0.395200
      8 CBC        72.7335   57.0225   41.3898 a3         1 CLA     -0.037700
      9 CBD        77.2444   56.8804   33.6347 a1         1 CLA     -0.053900
     10 NB         78.6097   60.7695   39.1200 nm         1 CLA     -0.295700
     11 OBD        75.2577   55.4710   33.3076 o2         1 CLA     -0.494600
     12 CGA        81.7202   57.4980   31.7523 c4         1 CLA      0.827000
     13 CGD        78.2426   55.7020   33.4110 c4         1 CLA      0.655300
     14 ND         76.1858   58.2002   36.9871 nm         1 CLA     -0.291600
     15 CED        78.6113   53.3283   33.7875 a3         1 CLA      0.005400
     16 CHA        77.5452   57.8655   34.8424 cs         1 CLA     -0.123800
     17 CHB        80.4627   60.8605   37.4484 aa         1 CLA     -0.291900
     18 CHC        77.3960   60.8061   41.1693 aa         1 CLA     -0.090400
     19 CHD        74.3280   58.0463   38.5537 aa         1 CLA     -0.052000
     20 CMA        82.3003   59.1200   35.6856 a3         1 CLA     -0.230700
     21 CMB        81.9164   62.5614   39.7937 a3         1 CLA     -0.180800
     22 CMC        75.1183   60.1482   43.2813 a3         1 CLA     -0.134000
     23 CMD        73.1881   56.2090   36.1765 a3         1 CLA     -0.141100
     24 C1         82.7486   55.5396   32.8497 a2         1 CLA      0.023000
     25 C1A        78.6754   58.6866   35.1608 ac         1 CLA     -0.015100
     26 C1B        79.8595   61.1844   38.7046 cr         1 CLA      0.054700
     27 C1C        76.2317   60.1119   40.8139 cn         1 CLA     -0.005600
     28 C1D        74.9562   57.7791   37.3161 ap         1 CLA     -0.047300
     29 O1A        81.6107   56.9032   30.6894 o2         1 CLA     -0.610800
     30 O1D        79.2860   55.8499   32.7479 o2         1 CLA     -0.558200
     31 C2         83.3219   55.3212   34.1816 c8         1 CLA     -0.325100
     32 C2A        80.0508   58.6696   34.4417 a1         1 CLA      0.098600
     33 C2B        80.5310   61.8460   39.7996 cb         1 CLA      0.088500
     34 C2C        75.1501   59.7347   41.7506 cb         1 CLA      0.053700
     35 C2D        74.4651   56.9480   36.2435 cb         1 CLA      0.058900
     36 O2A        82.3222   56.9922   32.8566 o1         1 CLA     -0.437200
     37 O2D        77.9518   54.5772   34.1605 o1         1 CLA     -0.357600
     38 C3         84.3858   54.6096   34.5966 c5         1 CLA      0.031200
     39 C3A        80.9189   59.6579   35.2758 a1         1 CLA      0.166800
     40 C3B        79.6542   61.7916   40.8644 cb         1 CLA      0.035000
     41 C3C        74.2268   59.0697   41.0046 cb         1 CLA     -0.089900
     42 C3D        75.4325   56.8631   35.2869 cb         1 CLA     -0.035900
     43 C4         84.2778   53.2113   35.1355 a3         1 CLA     -0.053300
     44 C4A        80.0336   59.9397   36.4726 ac         1 CLA      0.001800
     45 C4B        78.5060   61.0961   40.3805 cn         1 CLA     -0.020900
     46 C4C        74.8594   58.7967   39.6886 cr         1 CLA     -0.044400
     47 C4D        76.4370   57.6897   35.7544 c6         1 CLA     -0.046000
     48 C5         85.7692   55.2957   34.3780 a2         1 CLA     -0.070400
     49 C6         85.8887   56.5628   35.1497 a2         1 CLA      0.043900
     50 C7         86.0390   56.3593   36.5584 a2         1 CLA     -0.150000
     51 C8         86.3681   57.5553   37.5184 a1         1 CLA      0.064200
     52 C9         87.7268   58.1601   37.3177 a3         1 CLA     -0.259300
     53 C10        86.2210   57.0922   39.0344 a2         1 CLA     -0.071900
     54 C11        86.3247   58.2892   39.9972 a2         1 CLA      0.014500
     55 C12        86.0688   57.7845   41.4369 a2         1 CLA     -0.112100
     56 C13        85.6922   58.8631   42.5249 a1         1 CLA      0.089200
     57 C14        86.7438   59.9897   42.6100 a3         1 CLA     -0.239100
     58 C15        85.3819   58.3209   43.9180 a2         1 CLA     -0.102200
     59 C16        84.0977   57.4585   44.0901 a2         1 CLA      0.023900
     60 C17        82.7111   58.2158   44.0108 a2         1 CLA     -0.105700
     61 C18        81.4033   57.4021   44.2840 a1         1 CLA      0.206800
     62 C19        81.2097   56.7167   45.7031 a3         1 CLA     -0.280100
     63 C20        80.0951   58.2502   43.8583 a3         1 CLA     -0.280100
     64 NC         76.0065   59.4945   39.6005 nx         1 CLA     -0.309200
     65 MG         77.2437   59.5921   37.9210 mg         1 CLA      0.895000
     66 HMD3       72.3418   56.7687   35.8022 dc         1 CLA      0.064300
     67 HMD2       73.3654   55.2542   35.6911 dc         1 CLA      0.064300
     68 HMD1       72.9336   55.7973   37.1707 dc         1 CLA      0.064300
     69 HMC3       75.3270   61.1866   43.3538 dc         1 CLA      0.052100
     70 HMC2       74.0985   59.9338   43.6245 dc         1 CLA      0.052100
     71 HMC1       75.8572   59.5277   43.8089 dc         1 CLA      0.052100
     72 HMB3       81.8882   63.1287   38.8209 dc         1 CLA      0.063600
     73 HMB2       81.9361   63.2603   40.5734 dc         1 CLA      0.063600
     74 HMB1       82.7319   61.8506   39.7327 dc         1 CLA      0.063600
     75 HMA3       82.4366   58.5509   36.6023 dc         1 CLA      0.058300
     76 HMA2       82.6004   58.4463   34.8772 dc         1 CLA      0.058300
     77 HMA1       83.0703   59.9558   35.7027 dc         1 CLA      0.058300
     78 HED3       78.6531   52.7598   34.7457 dc         1 CLA      0.079300
     79 HED2       78.1620   52.7159   32.9557 dc         1 CLA      0.079300
     80 HED1       79.6093   53.5671   33.5460 dc         1 CLA      0.079300
     81 HBC3       72.7037   56.5925   40.3955 dc         1 CLA      0.016300
     82 HBC2       73.5436   56.5807   41.9137 dc         1 CLA      0.016300
     83 HBC1       71.8175   56.7734   41.9339 dc         1 CLA      0.016300
     84 HBB2       81.1774   62.4868   43.9954 da         1 CLA      0.183000
     85 HBB1       82.0125   62.1086   42.4041 da         1 CLA      0.183000
     86 HBA2       81.0203   59.2571   31.0874 dc         1 CLA      0.029400
     87 HBA1       82.0426   59.5692   32.4569 dc         1 CLA      0.029400
     88 HAC2       72.6874   58.9184   42.3894 dc         1 CLA      0.029300
     89 HAC1       72.0364   58.9763   40.8044 dc         1 CLA      0.029300
     90 HAA2       79.1279   58.4916   32.7067 dc         1 CLA      0.028700
     91 HAA1       79.6511   60.1548   32.7692 dc         1 CLA      0.028700
     92 H203       79.2207   57.7692   44.2846 dc         1 CLA      0.065600
     93 H202       80.0774   59.1882   44.4556 dc         1 CLA      0.065600
     94 H201       80.1648   58.4335   42.8048 dc         1 CLA      0.065600
     95 H193       80.1620   56.5651   45.7931 dc         1 CLA      0.065600
     96 H192       81.7799   55.8007   45.8885 dc         1 CLA      0.065600
     97 H191       81.3841   57.4594   46.4530 dc         1 CLA      0.065600
     98 H172       82.8513   59.0501   44.7256 dc         1 CLA      0.027600
     99 H171       82.6291   58.6264   43.0422 dc         1 CLA      0.027600
    100 H162       84.0253   56.6909   43.3280 dc         1 CLA      0.002900
    101 H161       84.1767   57.0241   45.1040 dc         1 CLA      0.002900
    102 H152       86.2116   57.7254   44.2537 dc         1 CLA      0.029100
    103 H151       85.1869   59.1035   44.6152 dc         1 CLA      0.029100
    104 H143       87.6604   59.6709   42.9347 dc         1 CLA      0.063600
    105 H142       86.9777   60.5519   41.6768 dc         1 CLA      0.063600
    106 H141       86.4858   60.7326   43.3370 dc         1 CLA      0.063600
    107 H122       85.2612   57.0096   41.5830 dc         1 CLA      0.032500
    108 H121       87.0083   57.2902   41.7422 dc         1 CLA      0.032500
    109 H112       87.2539   58.7478   39.9007 dc         1 CLA      0.006600
    110 H111       85.5412   58.9704   39.6353 dc         1 CLA      0.006600
    111 H102       85.2424   56.5305   39.1237 dc         1 CLA      0.024100
    112 H101       86.9846   56.3102   39.3124 dc         1 CLA      0.024100
    113 HHD        73.3300   57.6348   38.6717 da         1 CLA      0.174300
    114 HHC        77.2853   61.2583   42.1327 da         1 CLA      0.136800
    115 HHB        81.4964   61.2090   37.1929 da         1 CLA      0.138300
    116 HBD        77.1977   57.4595   32.6815 dc         1 CLA      0.107700
    117 HAB        79.0393   62.4475   42.8558 da         1 CLA      0.155200
    118 H93        87.9208   59.0212   38.0007 dc         1 CLA      0.069500
    119 H92        88.4374   57.3866   37.5079 dc         1 CLA      0.069500
    120 H91        87.8761   58.6351   36.3304 dc         1 CLA      0.069500
    121 H8         85.6636   58.4221   37.2607 dc         1 CLA      0.029300
    122 H72        85.0347   56.1484   36.8397 dc         1 CLA      0.044400
    123 H71        86.5995   55.4822   36.7703 dc         1 CLA      0.044400
    124 H62        86.8464   56.9577   34.8181 dc         1 CLA      0.015600
    125 H61        85.1251   57.3111   34.8935 dc         1 CLA      0.015600
    126 H52        86.5978   54.5577   34.7178 dc         1 CLA      0.033200
    127 H51        85.7412   55.5607   33.3414 dc         1 CLA      0.033200
    128 H43        83.2259   52.9141   35.3007 dc         1 CLA      0.037000
    129 H42        84.4332   52.5938   34.3358 dc         1 CLA      0.037000
    130 H41        84.8808   53.0310   35.9565 dc         1 CLA      0.037000
    131 H3A        81.0387   60.5907   34.6888 dc         1 CLA      0.041100
    132 H2A        80.4522   57.7072   34.6188 dc         1 CLA      0.083100
    133 H2         82.9179   56.0946   34.8534 da         1 CLA      0.180900
    134 H18        81.3859   56.6572   43.5055 dc         1 CLA     -0.003900
    135 H13        84.8007   59.3371   42.0839 dc         1 CLA      0.019700
    136 H12        81.8727   54.8983   32.7433 dc         1 CLA      0.120400
    137 H11        83.3859   55.2823   32.0005 dc         1 CLA      0.120400
    138 C1         69.0583   61.5651   49.0648 Z1         2 LUT      0.509236
    139 C2         67.7193   61.4759   49.7724 Z2         2 LUT     -0.434695
    140 C3         66.9349   62.7787   49.8366 Z3         2 LUT      0.437453
    141 O3         66.5675   63.3277   51.0646 S1         2 LUT     -0.547129
    142 C4         67.7118   63.9161   49.0488 Z4         2 LUT     -0.468603
    143 C5         68.3543   63.6811   47.7415 Z5         2 LUT      0.279246
    144 C6         69.1253   62.5072   47.8035 Z6         2 LUT     -0.305473
    145 C7         69.4797   61.8911   46.5532 Z7         2 LUT      0.069402
    146 C8         70.6140   62.2940   45.8907 Z8         2 LUT     -0.191631
    147 C9         71.1518   61.9833   44.5920 Z9         2 LUT      0.196698
    148 C10        72.1520   62.7790   44.0731 Y1         2 LUT     -0.208611
    149 C11        72.8169   62.6446   42.8366 Y2         2 LUT      0.030784
    150 C12        73.9251   63.3140   42.5075 Y3         2 LUT     -0.220316
    151 C13        74.8002   63.2944   41.3531 Y4         2 LUT      0.215937
    152 C14        75.9571   64.0768   41.3880 Y5         2 LUT     -0.185793
    153 C15        77.0713   64.3474   40.5557 Y6         2 LUT     -0.057835
    154 C16        69.3084   60.0240   48.7861 Y7         2 LUT     -0.405615
    155 C17        70.0699   61.9978   50.1984 Y7         2 LUT     -0.405615
    156 C18        67.5623   64.2505   46.5480 Y9         2 LUT     -0.369639
    157 C19        70.5940   60.7346   44.0142 W1         2 LUT     -0.333362
    158 C20        74.3072   62.5990   40.0645 W2         2 LUT     -0.323439
    159 C21        88.4921   66.3033   34.6737 Z1         2 LUT      0.406104
    160 C22        89.1046   65.8515   33.2832 Z2         2 LUT     -0.404965
    161 C23        88.9497   66.8411   32.0590 Z3         2 LUT      0.391255
    162 O23        89.4008   66.0911   30.9419 S1         2 LUT     -0.528210
    163 C24        87.5619   67.4463   31.9964 W6         2 LUT     -0.258361
    164 C25        86.6456   67.2563   32.9821 Z5         2 LUT      0.133546
    165 C26        86.9961   66.6516   34.3190 W8         2 LUT     -0.147008
    166 C27        86.2151   67.2908   35.4057 Z7         2 LUT      0.023843
    167 C28        85.0191   66.8777   35.8958 Z8         2 LUT     -0.216987
    168 C29        84.3640   67.2229   37.1997 Z9         2 LUT      0.206524
    169 C30        83.1904   66.5700   37.5580 Y1         2 LUT     -0.215556
    170 C31        82.4305   66.7505   38.7118 Y2         2 LUT      0.025142
    171 C32        81.2527   66.0658   38.8901 Y3         2 LUT     -0.212209
    172 C33        80.3616   66.0661   40.0297 Y4         2 LUT      0.240937
    173 C34        79.2142   65.3706   39.9464 Y5         2 LUT     -0.218862
    174 C35        78.1734   65.1202   40.9122 Y6         2 LUT     -0.023547
    175 C36        89.4025   67.3924   35.2929 Y7         2 LUT     -0.393485
    176 C37        88.6525   64.9926   35.6748 Y7         2 LUT     -0.393485
    177 C38        85.2427   67.8053   32.7176 Y9         2 LUT     -0.387526
    178 C39        85.0249   68.3008   38.0602 W1         2 LUT     -0.322618
    179 C40        80.6131   66.9926   41.2471 W2         2 LUT     -0.358472
    180 H403       80.1357   66.6011   42.1758 R7         2 LUT      0.097720
    181 H402       81.6510   67.1495   41.5107 R7         2 LUT      0.097720
    182 H401       80.2671   68.0206   40.9870 R7         2 LUT      0.097720
    183 H393       84.4842   68.6658   38.9244 R4         2 LUT      0.082505
    184 H392       85.9095   67.9207   38.4795 R4         2 LUT      0.082505
    185 H391       85.2022   69.1690   37.4262 R4         2 LUT      0.082505
    186 H383       85.0561   68.7534   33.1248 R1         2 LUT      0.104030
    187 H382       84.8967   67.7500   31.6868 R1         2 LUT      0.104030
    188 H381       84.4824   67.1981   33.2765 R1         2 LUT      0.104030
    189 H373       89.6719   64.8428   36.1006 T4         2 LUT      0.089537
    190 H372       88.0218   65.1348   36.5462 T4         2 LUT      0.089537
    191 H371       88.3021   64.0872   35.1697 T4         2 LUT      0.089537
    192 H363       89.0685   68.2890   34.7683 T4         2 LUT      0.089537
    193 H362       89.1861   67.5845   36.3722 T4         2 LUT      0.089537
    194 H361       90.4767   67.2468   35.1375 T4         2 LUT      0.089537
    195 H222       90.1497   65.5341   33.4131 U2         2 LUT      0.127376
    196 H221       88.5528   64.9222   32.9334 U2         2 LUT      0.127376
    197 H203       73.5856   63.1737   39.4627 R7         2 LUT      0.087068
    198 H202       75.1584   62.3807   39.4123 R7         2 LUT      0.087068
    199 H201       73.8625   61.5633   40.2445 R7         2 LUT      0.087068
    200 H193       69.5239   60.8531   43.8087 R4         2 LUT      0.089716
    201 H192       70.9622   60.4559   43.0686 R4         2 LUT      0.089716
    202 H191       70.7093   59.8772   44.6296 R4         2 LUT      0.089716
    203 H183       68.2727   64.8026   46.0144 R1         2 LUT      0.094572
    204 H182       67.2689   63.4156   45.8252 R1         2 LUT      0.094572
    205 H181       66.7616   64.9513   46.7847 R1         2 LUT      0.094572
    206 H173       70.0402   61.1560   50.9675 T4         2 LUT      0.093752
    207 H172       71.1302   62.1394   49.9358 T4         2 LUT      0.093752
    208 H171       69.7684   62.8975   50.7711 T4         2 LUT      0.093752
    209 H163       70.3635   59.8430   48.5229 T4         2 LUT      0.093752
    210 H162       69.1883   59.5115   49.7725 T4         2 LUT      0.093752
    211 H161       68.5115   59.5977   48.1187 T4         2 LUT      0.093752
    212 HO3        65.9240   62.7511   51.4282 Q1         2 LUT      0.300121
    213 H8         71.2401   62.9366   46.4740 U7         2 LUT      0.080784
    214 H7         68.8104   61.0720   46.1493 U6         2 LUT      0.042190
    215 H42        67.0372   64.7492   48.9669 U5         2 LUT      0.145166
    216 H41        68.3915   64.4658   49.8004 U5         2 LUT      0.145166
    217 H35        78.2373   65.4454   41.8791 T3         2 LUT      0.077919
    218 H34        79.1129   64.7186   39.0655 T2         2 LUT      0.073626
    219 H32        80.9269   65.5937   38.0281 T1         2 LUT      0.092510
    220 H31        82.8070   67.2360   39.5495 U9         2 LUT      0.070048
    221 H30        82.8202   65.7094   36.8509 U8         2 LUT      0.085442
    222 H3         66.0630   62.5173   49.2129 U3         2 LUT     -0.031596
    223 H28        84.5152   66.1344   35.2781 U7         2 LUT      0.084728
    224 H27        86.8770   67.8621   36.0171 U6         2 LUT      0.087291
    225 H26        86.4802   65.7567   33.9663 Q6         2 LUT      0.075325
    226 H24        87.2435   67.8791   31.0422 Q5         2 LUT      0.094482
    227 H23        89.5089   67.7893   32.2815 U3         2 LUT     -0.024869
    228 H22        67.0871   60.7818   49.1556 U2         2 LUT      0.127376
    229 H21        67.7017   61.0890   50.8158 U2         2 LUT      0.127376
    230 H15        77.1415   63.9250   39.5019 T3         2 LUT      0.093200
    231 H14        76.0762   64.5411   42.3580 T2         2 LUT      0.068865
    232 H12        74.2680   63.8073   43.4187 T1         2 LUT      0.095507
    233 H11        72.2902   61.8541   42.1474 U9         2 LUT      0.068930
    234 H10        72.5160   63.5141   44.7051 U8         2 LUT      0.083911
    235 H1         89.1520   66.5095   30.1053 Q1         2 LUT      0.297311
@<TRIPOS>BOND
    1     6     1 1
    2     7     2 1
    3     8     3 1
    4     9     4 1
    5    11     4 1
    6    12     6 1
    7    13     9 1
    8    16     9 1
    9    25     5 1
   10    25    16 1
   11    26    10 1
   12    26    17 1
   13    27    18 1
   14    28    14 1
   15    28    19 1
   16    29    12 1
   17    30    13 1
   18    31    24 1
   19    32     1 1
   20    32    25 1
   21    33    21 1
   22    33    26 1
   23    34    22 1
   24    34    27 1
   25    35    23 1
   26    35    28 1
   27    36    12 1
   28    36    24 1
   29    37    13 1
   30    37    15 1
   31    38    31 1
   32    39    20 1
   33    39    32 1
   34    40     2 1
   35    40    33 1
   36    41     3 1
   37    41    34 1
   38    42     4 1
   39    42    35 1
   40    43    38 1
   41    44     5 1
   42    44    17 1
   43    44    39 1
   44    45    10 1
   45    45    18 1
   46    45    40 1
   47    46    19 1
   48    46    41 1
   49    47    14 1
   50    47    16 1
   51    47    42 1
   52    48    38 1
   53    49    48 1
   54    50    49 1
   55    51    50 1
   56    52    51 1
   57    53    51 1
   58    54    53 1
   59    55    54 1
   60    56    55 1
   61    57    56 1
   62    58    56 1
   63    59    58 1
   64    60    59 1
   65    61    60 1
   66    62    61 1
   67    63    61 1
   68    64    27 1
   69    64    46 1
   70    65     5 1
   71    65    10 1
   72    65    64 1
   73    65    14 1
   74    66    23 1
   75    67    23 1
   76    68    23 1
   77    69    22 1
   78    70    22 1
   79    71    22 1
   80    72    21 1
   81    73    21 1
   82    74    21 1
   83    75    20 1
   84    76    20 1
   85    77    20 1
   86    78    15 1
   87    79    15 1
   88    80    15 1
   89    81     8 1
   90    82     8 1
   91    83     8 1
   92    84     7 1
   93    85     7 1
   94    86     6 1
   95    87     6 1
   96    88     3 1
   97    89     3 1
   98    90     1 1
   99    91     1 1
  100    92    63 1
  101    93    63 1
  102    94    63 1
  103    95    62 1
  104    96    62 1
  105    97    62 1
  106    98    60 1
  107    99    60 1
  108   100    59 1
  109   101    59 1
  110   102    58 1
  111   103    58 1
  112   104    57 1
  113   105    57 1
  114   106    57 1
  115   107    55 1
  116   108    55 1
  117   109    54 1
  118   110    54 1
  119   111    53 1
  120   112    53 1
  121   113    19 1
  122   114    18 1
  123   115    17 1
  124   116     9 1
  125   117     2 1
  126   118    52 1
  127   119    52 1
  128   120    52 1
  129   121    51 1
  130   122    50 1
  131   123    50 1
  132   124    49 1
  133   125    49 1
  134   126    48 1
  135   127    48 1
  136   128    43 1
  137   129    43 1
  138   130    43 1
  139   131    39 1
  140   132    32 1
  141   133    31 1
  142   134    61 1
  143   135    56 1
  144   136    24 1
  145   137    24 1
  146   139   138 1
  147   140   139 1
  148   141   140 1
  149   142   140 1
  150   143   142 1
  151   144   138 1
  152   144   143 1
  153   145   144 1
  154   146   145 1
  155   147   146 1
  156   148   147 1
  157   149   148 1
  158   150   149 1
  159   151   150 1
  160   152   151 1
  161   153   152 1
  162   154   138 1
  163   155   138 1
  164   156   143 1
  165   157   147 1
  166   158   151 1
  167   160   159 1
  168   161   160 1
  169   162   161 1
  170   163   161 1
  171   164   163 1
  172   165   159 1
  173   165   164 1
  174   166   165 1
  175   167   166 1
  176   168   167 1
  177   169   168 1
  178   170   169 1
  179   171   170 1
  180   172   171 1
  181   173   172 1
  182   174   153 1
  183   174   173 1
  184   175   159 1
  185   176   159 1
  186   177   164 1
  187   178   168 1
  188   179   172 1
  189   180   179 1
  190   181   179 1
  191   182   179 1
  192   183   178 1
  193   184   178 1
  194   185   178 1
  195   186   177 1
  196   187   177 1
  197   188   177 1
  198   189   176 1
  199   190   176 1
  200   191   176 1
  201   192   175 1
  202   193   175 1
  203   194   175 1
  204   195   160 1
  205   196   160 1
  206   197   158 1
  207   198   158 1
  208   199   158 1
  209   200   157 1
  210   201   157 1
  211   202   157 1
  212   203   156 1
  213   204   156 1
  214   205   156 1
  215   206   155 1
  216   207   155 1
  217   208   155 1
  218   209   154 1
  219   210   154 1
  220   211   154 1
  221   212   141 1
  222   213   146 1
  223   214   145 1
  224   215   142 1
  225   216   142 1
  226   217   174 1
  227   218   173 1
  228   219   171 1
  229   220   170 1
  230   221   169 1
  231   222   140 1
  232   223   167 1
  233   224   166 1
  234   225   165 1
  235   226   163 1
  236   227   161 1
  237   228   139 1
  238   229   139 1
  239   230   153 1
  240   231   152 1
  241   232   150 1
  242   233   149 1
  243   234   148 1
  244   235   162 1
  245   65    153 1
  246   65    174 1
@<TRIPOS>SUBSTRUCTURE
      1 CLA               1 ****               0 ****  **** 
      2 LUT             138 ****               0 ****  **** 
