@<TRIPOS>MOLECULE
Cpptraj generated mol2 file.
  235   246     2     0     0
SMALL
USER_CHARGES


@<TRIPOS>ATOM
      1 CAA        79.0777   57.5597   35.3036 a2         1 CLA     -0.055900
      2 CAB        79.0186   61.2496   44.2232 c8         1 CLA     -0.148500
      3 CAC        72.0549   57.3214   43.6249 a2         1 CLA     -0.012600
      4 CAD        74.9672   54.9605   36.3260 ck         1 CLA      0.398800
      5 NA         78.1107   57.7152   38.6617 ns         1 CLA     -0.225500
      6 CBA        80.3563   57.4309   34.4687 a2         1 CLA     -0.135000
      7 CBB        80.1698   61.5661   44.8026 c0         1 CLA     -0.395200
      8 CBC        72.1583   55.8551   43.8502 a3         1 CLA     -0.037700
      9 CBD        76.4425   55.4673   35.9857 a1         1 CLA     -0.053900
     10 NB         77.9077   59.2462   41.3199 nm         1 CLA     -0.295700
     11 OBD        74.4406   54.1063   35.6129 o2         1 CLA     -0.494600
     12 CGA        80.8953   56.0353   34.1744 c4         1 CLA      0.827000
     13 CGD        77.3681   54.3595   35.6338 c4         1 CLA      0.655300
     14 ND         75.3843   56.9014   39.2335 nm         1 CLA     -0.291600
     15 CED        77.8681   51.9848   35.9342 a3         1 CLA      0.005400
     16 CHA        76.7329   56.3990   37.2405 cs         1 CLA     -0.123800
     17 CHB        79.7287   59.2261   39.6703 aa         1 CLA     -0.291900
     18 CHC        76.6956   59.3929   43.4706 aa         1 CLA     -0.090400
     19 CHD        73.4407   56.8413   40.8030 aa         1 CLA     -0.052000
     20 CMA        81.5561   57.3437   37.9511 a3         1 CLA     -0.230700
     21 CMB        81.1585   61.2102   41.6671 a3         1 CLA     -0.180800
     22 CMC        74.0862   59.0743   45.3565 a3         1 CLA     -0.134000
     23 CMD        72.1044   55.0301   38.4753 a3         1 CLA     -0.141100
     24 C1         82.1965   54.1341   35.0342 a2         1 CLA      0.023000
     25 C1A        77.9288   57.0058   37.5323 ac         1 CLA     -0.015100
     26 C1B        79.1653   59.7305   40.8687 cr         1 CLA      0.054700
     27 C1C        75.5355   58.7393   43.0818 cn         1 CLA     -0.005600
     28 C1D        74.0610   56.4776   39.5613 ap         1 CLA     -0.047300
     29 O1A        80.6485   55.3517   33.1734 o2         1 CLA     -0.610800
     30 O1D        78.3249   54.4282   34.8971 o2         1 CLA     -0.558200
     31 C2         81.4788   53.3494   36.0320 c8         1 CLA     -0.325100
     32 C2A        79.2494   56.9959   36.7157 a1         1 CLA      0.098600
     33 C2B        79.8007   60.5749   41.7936 cb         1 CLA      0.088500
     34 C2C        74.3104   58.5941   43.9227 cb         1 CLA      0.053700
     35 C2D        73.5264   55.5798   38.5407 cb         1 CLA      0.058900
     36 O2A        81.7197   55.5419   35.1494 o1         1 CLA     -0.437200
     37 O2D        77.0019   53.1619   36.3290 o1         1 CLA     -0.357600
     38 C3         82.0275   52.7808   37.0952 c5         1 CLA      0.031200
     39 C3A        80.1765   57.9317   37.5402 a1         1 CLA      0.166800
     40 C3B        78.8460   60.5959   42.8783 cb         1 CLA      0.035000
     41 C3C        73.3864   57.8898   43.1585 cb         1 CLA     -0.089900
     42 C3D        74.5480   55.5757   37.5637 cb         1 CLA     -0.035900
     43 C4         82.2840   51.3307   37.1528 a3         1 CLA     -0.053300
     44 C4A        79.3130   58.2468   38.7592 ac         1 CLA      0.001800
     45 C4B        77.7974   59.7047   42.6116 cn         1 CLA     -0.020900
     46 C4C        73.9753   57.6092   41.8538 cr         1 CLA     -0.044400
     47 C4D        75.6610   56.3732   38.0485 c6         1 CLA     -0.046000
     48 C5         82.2187   53.5903   38.3064 a2         1 CLA     -0.070400
     49 C6         83.6200   54.2333   38.3945 a2         1 CLA      0.043900
     50 C7         83.7511   54.9620   39.6885 a2         1 CLA     -0.150000
     51 C8         84.7208   56.1938   39.5489 a1         1 CLA      0.064200
     52 C9         86.0951   55.7733   38.9273 a3         1 CLA     -0.259300
     53 C10        85.0013   56.8561   40.9326 a2         1 CLA     -0.071900
     54 C11        83.7288   57.2808   41.6929 a2         1 CLA      0.014500
     55 C12        83.9624   58.4008   42.6183 a2         1 CLA     -0.112100
     56 C13        84.8303   58.1711   43.9273 a1         1 CLA      0.089200
     57 C14        84.4742   56.9883   44.8506 a3         1 CLA     -0.239100
     58 C15        84.9269   59.4715   44.8307 a2         1 CLA     -0.102200
     59 C16        83.7594   60.3276   45.3578 a2         1 CLA      0.023900
     60 C17        84.2824   61.3618   46.3575 a2         1 CLA     -0.105700
     61 C18        83.2523   62.2658   46.9836 a1         1 CLA      0.206800
     62 C19        82.2114   61.6478   47.9299 a3         1 CLA     -0.280100
     63 C20        83.9875   63.3300   47.8214 a3         1 CLA     -0.280100
     64 NC         75.2751   58.1765   41.7971 nx         1 CLA     -0.309200
     65 MG         76.5814   58.1048   40.1794 mg         1 CLA      0.895000
     66 HMD3       72.0101   54.2265   37.8181 dc         1 CLA      0.064300
     67 HMD2       71.6613   54.6458   39.3741 dc         1 CLA      0.064300
     68 HMD1       71.5070   55.9157   38.2335 dc         1 CLA      0.064300
     69 HMC3       74.8260   59.8060   45.6115 dc         1 CLA      0.052100
     70 HMC2       73.1371   59.6010   45.2700 dc         1 CLA      0.052100
     71 HMC1       73.8791   58.1978   46.0095 dc         1 CLA      0.052100
     72 HMB3       81.9454   60.4237   41.7638 dc         1 CLA      0.063600
     73 HMB2       81.0879   61.7163   40.6657 dc         1 CLA      0.063600
     74 HMB1       81.4199   62.0331   42.3347 dc         1 CLA      0.063600
     75 HMA3       81.4473   56.3384   38.3777 dc         1 CLA      0.058300
     76 HMA2       82.2275   57.2178   37.0755 dc         1 CLA      0.058300
     77 HMA1       82.0372   57.9461   38.7007 dc         1 CLA      0.058300
     78 HED3       77.9366   52.0453   34.9020 dc         1 CLA      0.079300
     79 HED2       78.8515   51.9175   36.4531 dc         1 CLA      0.079300
     80 HED1       77.2957   51.0293   36.0743 dc         1 CLA      0.079300
     81 HBC3       73.0296   55.6438   44.4355 dc         1 CLA      0.016300
     82 HBC2       71.2123   55.4249   44.2257 dc         1 CLA      0.016300
     83 HBC1       72.2789   55.4496   42.8858 dc         1 CLA      0.016300
     84 HBB2       80.2772   62.0891   45.7925 da         1 CLA      0.183000
     85 HBB1       81.0860   61.2388   44.4430 da         1 CLA      0.183000
     86 HBA2       80.0984   57.8809   33.5392 dc         1 CLA      0.029400
     87 HBA1       81.2495   57.9578   34.8919 dc         1 CLA      0.029400
     88 HAC2       71.7263   57.9273   44.5190 dc         1 CLA      0.029300
     89 HAC1       71.3172   57.5483   42.8305 dc         1 CLA      0.029300
     90 HAA2       78.3180   57.0695   34.6808 dc         1 CLA      0.028700
     91 HAA1       78.6960   58.5488   35.3036 dc         1 CLA      0.028700
     92 H203       84.7619   63.7177   47.1968 dc         1 CLA      0.065600
     93 H202       83.3716   64.1097   48.3113 dc         1 CLA      0.065600
     94 H201       84.5541   62.8724   48.6208 dc         1 CLA      0.065600
     95 H193       81.7489   60.8231   47.3765 dc         1 CLA      0.065600
     96 H192       82.6323   61.1781   48.8219 dc         1 CLA      0.065600
     97 H191       81.4561   62.3868   48.1369 dc         1 CLA      0.065600
     98 H172       84.7879   60.9060   47.1911 dc         1 CLA      0.027600
     99 H171       85.1639   61.8853   45.8381 dc         1 CLA      0.027600
    100 H162       83.1906   60.7164   44.4788 dc         1 CLA      0.002900
    101 H161       83.1270   59.6103   45.9215 dc         1 CLA      0.002900
    102 H152       85.4876   59.2674   45.6793 dc         1 CLA      0.029100
    103 H151       85.4889   60.1309   44.1309 dc         1 CLA      0.029100
    104 H143       85.2791   56.9337   45.6155 dc         1 CLA      0.063600
    105 H142       83.5864   57.2300   45.4288 dc         1 CLA      0.063600
    106 H141       84.2741   56.0909   44.2156 dc         1 CLA      0.063600
    107 H122       84.2337   59.3132   42.1144 dc         1 CLA      0.032500
    108 H121       82.9731   58.7346   43.1396 dc         1 CLA      0.032500
    109 H112       82.9342   57.5948   41.0013 dc         1 CLA      0.006600
    110 H111       83.2935   56.4801   42.2375 dc         1 CLA      0.006600
    111 H102       85.4803   56.0412   41.4933 dc         1 CLA      0.024100
    112 H101       85.6288   57.7128   40.8548 dc         1 CLA      0.024100
    113 HHD        72.4734   56.5097   40.8788 da         1 CLA      0.174300
    114 HHC        76.8567   59.6931   44.4886 da         1 CLA      0.136800
    115 HHB        80.7094   59.6163   39.5073 da         1 CLA      0.138300
    116 HBD        76.4303   56.0628   35.0467 dc         1 CLA      0.107700
    117 HAB        78.1412   61.6053   44.7197 da         1 CLA      0.155200
    118 H93        86.8046   56.5914   39.1654 dc         1 CLA      0.069500
    119 H92        86.5593   54.8420   39.2975 dc         1 CLA      0.069500
    120 H91        86.1315   55.5818   37.8522 dc         1 CLA      0.069500
    121 H8         84.2998   56.9665   38.9290 dc         1 CLA      0.029300
    122 H72        82.7419   55.2273   40.0754 dc         1 CLA      0.044400
    123 H71        84.2867   54.3270   40.4222 dc         1 CLA      0.044400
    124 H62        84.3300   53.3913   38.3723 dc         1 CLA      0.015600
    125 H61        83.7890   54.9595   37.5123 dc         1 CLA      0.015600
    126 H52        81.3784   54.2728   38.4369 dc         1 CLA      0.033200
    127 H51        81.9456   52.9373   39.1457 dc         1 CLA      0.033200
    128 H43        83.3574   51.2044   36.9845 dc         1 CLA      0.037000
    129 H42        81.9577   50.9005   38.0985 dc         1 CLA      0.037000
    130 H41        81.7764   50.8477   36.2954 dc         1 CLA      0.037000
    131 H3A        80.2282   58.9436   37.0813 dc         1 CLA      0.041100
    132 H2A        79.7665   56.0149   36.7401 dc         1 CLA      0.083100
    133 H2         80.4355   53.5663   36.0844 da         1 CLA      0.180900
    134 H18        82.6820   62.6469   46.1519 dc         1 CLA     -0.003900
    135 H13        85.8401   57.9678   43.7448 dc         1 CLA      0.019700
    136 H12        82.0981   53.7075   34.0013 dc         1 CLA      0.120400
    137 H11        83.2202   54.0705   35.2717 dc         1 CLA      0.120400
    138 C1         68.5349   60.5172   50.0578 Z1         2 LUT      0.509236
    139 C2         67.2583   60.3853   50.8019 Z2         2 LUT     -0.434695
    140 C3         66.5217   61.6303   51.1051 Z3         2 LUT      0.437453
    141 O3         66.7979   62.2038   52.4114 S1         2 LUT     -0.547129
    142 C4         66.6582   62.6960   49.9864 Z4         2 LUT     -0.468603
    143 C5         67.4371   62.3560   48.6829 Z5         2 LUT      0.279246
    144 C6         68.2791   61.2819   48.7034 Z6         2 LUT     -0.305473
    145 C7         68.7965   60.6722   47.4993 Z7         2 LUT      0.069402
    146 C8         69.9451   61.0399   47.0626 Z8         2 LUT     -0.191631
    147 C9         70.4637   60.9594   45.6840 Z9         2 LUT      0.196698
    148 C10        71.6128   61.6863   45.2064 Y1         2 LUT     -0.208611
    149 C11        72.1736   61.6996   43.8781 Y2         2 LUT      0.030784
    150 C12        73.3465   62.3676   43.6438 Y3         2 LUT     -0.220316
    151 C13        74.0546   62.5427   42.4153 Y4         2 LUT      0.215937
    152 C14        75.2172   63.1667   42.4874 Y5         2 LUT     -0.185793
    153 C15        76.2619   63.3292   41.5337 Y6         2 LUT     -0.057835
    154 C16        69.0971   59.1681   49.9297 Y7         2 LUT     -0.405615
    155 C17        69.4858   61.3984   50.9435 Y7         2 LUT     -0.405615
    156 C18        66.8989   63.0568   47.4509 Y9         2 LUT     -0.369639
    157 C19        69.6175   60.1982   44.7338 W1         2 LUT     -0.333362
    158 C20        73.5045   61.8318   41.2183 W2         2 LUT     -0.323439
    159 C21        87.9518   65.0566   35.7200 Z1         2 LUT      0.406104
    160 C22        88.7216   64.3180   34.5151 Z2         2 LUT     -0.404965
    161 C23        88.7780   65.0933   33.2466 Z3         2 LUT      0.391255
    162 O23        89.5451   64.4584   32.2584 S1         2 LUT     -0.528210
    163 C24        87.5621   65.7908   32.8965 W6         2 LUT     -0.258361
    164 C25        86.5003   65.9317   33.7213 Z5         2 LUT      0.133546
    165 C26        86.4515   65.2761   35.1869 W8         2 LUT     -0.147008
    166 C27        85.5482   66.0831   36.1771 Z7         2 LUT      0.023843
    167 C28        84.5428   65.4973   36.9259 Z8         2 LUT     -0.216987
    168 C29        83.7416   66.2146   37.9110 Z9         2 LUT      0.206524
    169 C30        82.5760   65.6081   38.3220 Y1         2 LUT     -0.215556
    170 C31        81.6994   65.8070   39.4073 Y2         2 LUT      0.025142
    171 C32        80.5564   65.1111   39.7064 Y3         2 LUT     -0.212209
    172 C33        79.6076   65.0453   40.8151 Y4         2 LUT      0.240937
    173 C34        78.5761   64.0888   40.8058 Y5         2 LUT     -0.218862
    174 C35        77.4467   64.0023   41.7334 Y6         2 LUT     -0.023547
    175 C36        88.7493   66.4023   36.0095 Y7         2 LUT     -0.393485
    176 C37        87.8613   64.1617   36.9478 Y7         2 LUT     -0.393485
    177 C38        85.1927   66.4542   33.1204 Y9         2 LUT     -0.387526
    178 C39        84.4252   67.2243   38.7784 W1         2 LUT     -0.322618
    179 C40        80.0643   65.7261   42.0594 W2         2 LUT     -0.358472
    180 H403       79.5763   65.3095   42.9631 R7         2 LUT      0.097720
    181 H402       81.1305   65.6168   42.1968 R7         2 LUT      0.097720
    182 H401       79.8545   66.7792   42.0574 R7         2 LUT      0.097720
    183 H393       85.3465   67.7019   38.3984 R4         2 LUT      0.082505
    184 H392       83.6730   67.9806   38.9852 R4         2 LUT      0.082505
    185 H391       84.6970   66.7505   39.6971 R4         2 LUT      0.082505
    186 H383       84.9294   67.3692   33.6633 R1         2 LUT      0.104030
    187 H382       85.4312   66.8561   32.0912 R1         2 LUT      0.104030
    188 H381       84.3520   65.7251   33.0823 R1         2 LUT      0.104030
    189 H373       88.7876   63.6772   37.2592 T4         2 LUT      0.089537
    190 H372       87.4114   64.7091   37.7992 T4         2 LUT      0.089537
    191 H371       87.1647   63.3655   36.7037 T4         2 LUT      0.089537
    192 H363       89.8827   66.2035   36.1234 T4         2 LUT      0.089537
    193 H362       88.5924   67.2033   35.2810 T4         2 LUT      0.089537
    194 H361       88.3363   66.8095   36.8188 T4         2 LUT      0.089537
    195 H222       89.6910   63.9986   34.8946 U2         2 LUT      0.127376
    196 H221       88.4128   63.3402   34.2065 U2         2 LUT      0.127376
    197 H203       74.0250   62.0476   40.2944 R7         2 LUT      0.087068
    198 H202       73.4715   60.7645   41.3016 R7         2 LUT      0.087068
    199 H201       72.5490   62.2254   40.9723 R7         2 LUT      0.087068
    200 H193       68.6677   60.6449   44.3721 R4         2 LUT      0.089716
    201 H192       70.0991   59.9615   43.7505 R4         2 LUT      0.089716
    202 H191       69.4046   59.1604   45.1291 R4         2 LUT      0.089716
    203 H183       67.3988   62.6931   46.5439 R1         2 LUT      0.094572
    204 H182       65.8492   62.8512   47.2648 R1         2 LUT      0.094572
    205 H181       66.9541   64.1570   47.6051 R1         2 LUT      0.094572
    206 H173       69.6204   61.0105   51.9701 T4         2 LUT      0.093752
    207 H172       70.4988   61.5160   50.4795 T4         2 LUT      0.093752
    208 H171       69.1508   62.4343   51.0621 T4         2 LUT      0.093752
    209 H163       69.4966   58.9493   50.9268 T4         2 LUT      0.093752
    210 H162       68.4335   58.3724   49.6478 T4         2 LUT      0.093752
    211 H161       69.9383   59.1472   49.2334 T4         2 LUT      0.093752
    212 HO3        66.2483   61.8708   53.1666 Q1         2 LUT      0.300121
    213 H8         70.6110   61.7459   47.6118 U7         2 LUT      0.080784
    214 H7         68.0938   60.1157   46.8409 U6         2 LUT      0.042190
    215 H42        65.6957   63.0322   49.5950 U5         2 LUT      0.145166
    216 H41        67.1887   63.6248   50.4639 U5         2 LUT      0.145166
    217 H35        77.5174   64.5573   42.6384 T3         2 LUT      0.077919
    218 H34        78.5422   63.3217   40.0552 T2         2 LUT      0.073626
    219 H32        80.2760   64.3948   38.9775 T1         2 LUT      0.092510
    220 H31        82.0171   66.5929   40.0839 U9         2 LUT      0.070048
    221 H30        82.1017   64.8510   37.7254 U8         2 LUT      0.085442
    222 H3         65.4803   61.2562   51.2210 U3         2 LUT     -0.031596
    223 H28        84.2299   64.4846   36.6203 U7         2 LUT      0.084728
    224 H27        85.7857   67.1101   36.3538 U6         2 LUT      0.087291
    225 H26        86.0256   64.2614   34.8840 Q6         2 LUT      0.075325
    226 H24        87.5767   66.2497   31.9352 Q5         2 LUT      0.094482
    227 H23        89.4439   65.9268   33.5324 U3         2 LUT     -0.024869
    228 H22        66.6798   59.7472   50.1338 U2         2 LUT      0.127376
    229 H21        67.5478   59.9350   51.7517 U2         2 LUT      0.127376
    230 H15        76.0706   62.8013   40.5781 T3         2 LUT      0.093200
    231 H14        75.5128   63.5910   43.4479 T2         2 LUT      0.068865
    232 H12        73.8529   62.7806   44.4943 T1         2 LUT      0.095507
    233 H11        71.5717   61.3334   42.9971 U9         2 LUT      0.068930
    234 H10        72.1544   62.3042   45.9893 U8         2 LUT      0.083911
    235 H1         89.0122   63.9878   31.5562 Q1         2 LUT      0.297311
@<TRIPOS>BOND
    1     6     1 1
    2     7     2 1
    3     8     3 1
    4     9     4 1
    5    11     4 1
    6    12     6 1
    7    13     9 1
    8    16     9 1
    9    25     5 1
   10    25    16 1
   11    26    10 1
   12    26    17 1
   13    27    18 1
   14    28    14 1
   15    28    19 1
   16    29    12 1
   17    30    13 1
   18    31    24 1
   19    32     1 1
   20    32    25 1
   21    33    21 1
   22    33    26 1
   23    34    22 1
   24    34    27 1
   25    35    23 1
   26    35    28 1
   27    36    12 1
   28    36    24 1
   29    37    13 1
   30    37    15 1
   31    38    31 1
   32    39    20 1
   33    39    32 1
   34    40     2 1
   35    40    33 1
   36    41     3 1
   37    41    34 1
   38    42     4 1
   39    42    35 1
   40    43    38 1
   41    44     5 1
   42    44    17 1
   43    44    39 1
   44    45    10 1
   45    45    18 1
   46    45    40 1
   47    46    19 1
   48    46    41 1
   49    47    14 1
   50    47    16 1
   51    47    42 1
   52    48    38 1
   53    49    48 1
   54    50    49 1
   55    51    50 1
   56    52    51 1
   57    53    51 1
   58    54    53 1
   59    55    54 1
   60    56    55 1
   61    57    56 1
   62    58    56 1
   63    59    58 1
   64    60    59 1
   65    61    60 1
   66    62    61 1
   67    63    61 1
   68    64    27 1
   69    64    46 1
   70    65     5 1
   71    65    10 1
   72    65    64 1
   73    65    14 1
   74    66    23 1
   75    67    23 1
   76    68    23 1
   77    69    22 1
   78    70    22 1
   79    71    22 1
   80    72    21 1
   81    73    21 1
   82    74    21 1
   83    75    20 1
   84    76    20 1
   85    77    20 1
   86    78    15 1
   87    79    15 1
   88    80    15 1
   89    81     8 1
   90    82     8 1
   91    83     8 1
   92    84     7 1
   93    85     7 1
   94    86     6 1
   95    87     6 1
   96    88     3 1
   97    89     3 1
   98    90     1 1
   99    91     1 1
  100    92    63 1
  101    93    63 1
  102    94    63 1
  103    95    62 1
  104    96    62 1
  105    97    62 1
  106    98    60 1
  107    99    60 1
  108   100    59 1
  109   101    59 1
  110   102    58 1
  111   103    58 1
  112   104    57 1
  113   105    57 1
  114   106    57 1
  115   107    55 1
  116   108    55 1
  117   109    54 1
  118   110    54 1
  119   111    53 1
  120   112    53 1
  121   113    19 1
  122   114    18 1
  123   115    17 1
  124   116     9 1
  125   117     2 1
  126   118    52 1
  127   119    52 1
  128   120    52 1
  129   121    51 1
  130   122    50 1
  131   123    50 1
  132   124    49 1
  133   125    49 1
  134   126    48 1
  135   127    48 1
  136   128    43 1
  137   129    43 1
  138   130    43 1
  139   131    39 1
  140   132    32 1
  141   133    31 1
  142   134    61 1
  143   135    56 1
  144   136    24 1
  145   137    24 1
  146   139   138 1
  147   140   139 1
  148   141   140 1
  149   142   140 1
  150   143   142 1
  151   144   138 1
  152   144   143 1
  153   145   144 1
  154   146   145 1
  155   147   146 1
  156   148   147 1
  157   149   148 1
  158   150   149 1
  159   151   150 1
  160   152   151 1
  161   153   152 1
  162   154   138 1
  163   155   138 1
  164   156   143 1
  165   157   147 1
  166   158   151 1
  167   160   159 1
  168   161   160 1
  169   162   161 1
  170   163   161 1
  171   164   163 1
  172   165   159 1
  173   165   164 1
  174   166   165 1
  175   167   166 1
  176   168   167 1
  177   169   168 1
  178   170   169 1
  179   171   170 1
  180   172   171 1
  181   173   172 1
  182   174   153 1
  183   174   173 1
  184   175   159 1
  185   176   159 1
  186   177   164 1
  187   178   168 1
  188   179   172 1
  189   180   179 1
  190   181   179 1
  191   182   179 1
  192   183   178 1
  193   184   178 1
  194   185   178 1
  195   186   177 1
  196   187   177 1
  197   188   177 1
  198   189   176 1
  199   190   176 1
  200   191   176 1
  201   192   175 1
  202   193   175 1
  203   194   175 1
  204   195   160 1
  205   196   160 1
  206   197   158 1
  207   198   158 1
  208   199   158 1
  209   200   157 1
  210   201   157 1
  211   202   157 1
  212   203   156 1
  213   204   156 1
  214   205   156 1
  215   206   155 1
  216   207   155 1
  217   208   155 1
  218   209   154 1
  219   210   154 1
  220   211   154 1
  221   212   141 1
  222   213   146 1
  223   214   145 1
  224   215   142 1
  225   216   142 1
  226   217   174 1
  227   218   173 1
  228   219   171 1
  229   220   170 1
  230   221   169 1
  231   222   140 1
  232   223   167 1
  233   224   166 1
  234   225   165 1
  235   226   163 1
  236   227   161 1
  237   228   139 1
  238   229   139 1
  239   230   153 1
  240   231   152 1
  241   232   150 1
  242   233   149 1
  243   234   148 1
  244   235   162 1
  245   65    153 1
  246   65    174 1
@<TRIPOS>SUBSTRUCTURE
      1 CLA               1 ****               0 ****  **** 
      2 LUT             138 ****               0 ****  **** 
