@<TRIPOS>MOLECULE
Cpptraj generated mol2 file.
  235   246     2     0     0
SMALL
USER_CHARGES


@<TRIPOS>ATOM
      1 CAA        79.7900   58.2509   34.6183 a2         1 CLA     -0.055900
      2 CAB        79.9344   62.0699   43.7160 c8         1 CLA     -0.148500
      3 CAC        73.0932   57.9739   43.2844 a2         1 CLA     -0.012600
      4 CAD        75.9290   55.3728   36.1336 ck         1 CLA      0.398800
      5 NA         78.8457   58.8440   38.1287 ns         1 CLA     -0.225500
      6 CBA        81.1113   58.1168   33.7546 a2         1 CLA     -0.135000
      7 CBB        80.6702   63.1704   43.9899 c0         1 CLA     -0.395200
      8 CBC        73.1235   56.5082   42.9898 a3         1 CLA     -0.037700
      9 CBD        77.3781   55.9354   35.8550 a1         1 CLA     -0.053900
     10 NB         78.7326   60.3397   40.6481 nm         1 CLA     -0.295700
     11 OBD        75.5282   54.3501   35.5721 o2         1 CLA     -0.494600
     12 CGA        81.6374   56.7459   33.5334 c4         1 CLA      0.827000
     13 CGD        78.4466   54.8348   36.2149 c4         1 CLA      0.655300
     14 ND         76.1300   57.7906   38.6706 nm         1 CLA     -0.291600
     15 CED        79.2151   53.3228   37.9321 a3         1 CLA      0.005400
     16 CHA        77.5728   57.1215   36.8682 cs         1 CLA     -0.123800
     17 CHB        80.5202   60.3233   38.9550 aa         1 CLA     -0.291900
     18 CHC        77.3854   60.5659   42.7468 aa         1 CLA     -0.090400
     19 CHD        74.1598   57.9472   40.1399 aa         1 CLA     -0.052000
     20 CMA        82.2569   58.1514   37.5338 a3         1 CLA     -0.230700
     21 CMB        81.8621   61.8745   41.1328 a3         1 CLA     -0.180800
     22 CMC        75.1710   59.8784   44.8050 a3         1 CLA     -0.134000
     23 CMD        73.2092   55.4220   38.3861 a3         1 CLA     -0.141100
     24 C1         82.7328   54.8279   34.3889 a2         1 CLA      0.023000
     25 C1A        78.7246   57.9638   37.0671 ac         1 CLA     -0.015100
     26 C1B        79.9251   60.7521   40.1873 cr         1 CLA      0.054700
     27 C1C        76.2703   59.8885   42.4282 cn         1 CLA     -0.005600
     28 C1D        74.8537   57.4151   38.9896 ap         1 CLA     -0.047300
     29 O1A        81.3678   56.1047   32.5268 o2         1 CLA     -0.610800
     30 O1D        79.3965   54.5248   35.5382 o2         1 CLA     -0.558200
     31 C2         83.3014   54.4143   35.6798 c8         1 CLA     -0.325100
     32 C2A        79.9512   57.8362   36.2105 a1         1 CLA      0.098600
     33 C2B        80.4855   61.4864   41.2337 cb         1 CLA      0.088500
     34 C2C        75.1456   59.5897   43.3013 cb         1 CLA      0.053700
     35 C2D        74.3620   56.3260   38.1545 cb         1 CLA      0.058900
     36 O2A        82.3385   56.2433   34.5665 o1         1 CLA     -0.437200
     37 O2D        78.1933   54.2395   37.4147 o1         1 CLA     -0.357600
     38 C3         84.4155   53.6574   35.8529 c5         1 CLA      0.031200
     39 C3A        80.9337   58.8212   36.9453 a1         1 CLA      0.166800
     40 C3B        79.5995   61.5556   42.3420 cb         1 CLA      0.035000
     41 C3C        74.2800   58.7147   42.5708 cb         1 CLA     -0.089900
     42 C3D        75.4378   56.1925   37.2746 cb         1 CLA     -0.035900
     43 C4         84.3719   52.1783   35.8550 a3         1 CLA     -0.053300
     44 C4A        80.0780   59.3892   38.0502 ac         1 CLA      0.001800
     45 C4B        78.5011   60.8024   41.9269 cn         1 CLA     -0.020900
     46 C4C        74.7973   58.6459   41.2207 cr         1 CLA     -0.044400
     47 C4D        76.4386   57.1468   37.6303 c6         1 CLA     -0.046000
     48 C5         85.6743   54.3474   36.2655 a2         1 CLA     -0.070400
     49 C6         85.5852   54.9768   37.6699 a2         1 CLA      0.043900
     50 C7         86.9466   55.5722   38.0974 a2         1 CLA     -0.150000
     51 C8         87.0405   56.1823   39.4893 a1         1 CLA      0.064200
     52 C9         86.1461   57.4693   39.5113 a3         1 CLA     -0.259300
     53 C10        88.5795   56.3521   39.8474 a2         1 CLA     -0.071900
     54 C11        88.9028   57.0492   41.1380 a2         1 CLA      0.014500
     55 C12        88.5107   56.2547   42.3577 a2         1 CLA     -0.112100
     56 C13        88.6548   57.0487   43.7292 a1         1 CLA      0.089200
     57 C14        90.1398   57.3367   44.0810 a3         1 CLA     -0.239100
     58 C15        88.0761   56.2443   44.8874 a2         1 CLA     -0.102200
     59 C16        87.9347   56.7346   46.3300 a2         1 CLA      0.023900
     60 C17        86.8968   57.8647   46.4857 a2         1 CLA     -0.105700
     61 C18        86.6308   58.2848   47.9956 a1         1 CLA      0.206800
     62 C19        85.4310   59.2255   47.7901 a3         1 CLA     -0.280100
     63 C20        86.2904   57.1751   48.9153 a3         1 CLA     -0.280100
     64 NC         75.9996   59.2854   41.1892 nx         1 CLA     -0.309200
     65 MG         77.3916   59.1737   39.5719 mg         1 CLA      0.895000
     66 HMD3       72.2357   55.7247   38.1039 dc         1 CLA      0.064300
     67 HMD2       73.3262   54.5496   37.7635 dc         1 CLA      0.064300
     68 HMD1       73.1475   55.1744   39.4444 dc         1 CLA      0.064300
     69 HMC3       76.1912   59.8847   45.1473 dc         1 CLA      0.052100
     70 HMC2       74.7958   60.8362   45.1103 dc         1 CLA      0.052100
     71 HMC1       74.6987   59.0978   45.2724 dc         1 CLA      0.052100
     72 HMB3       81.8564   62.7811   40.5802 dc         1 CLA      0.063600
     73 HMB2       82.3116   61.9818   42.1532 dc         1 CLA      0.063600
     74 HMB1       82.3611   61.0579   40.7220 dc         1 CLA      0.063600
     75 HMA3       82.8981   57.7080   36.7222 dc         1 CLA      0.058300
     76 HMA2       82.8004   58.8819   38.1261 dc         1 CLA      0.058300
     77 HMA1       82.0054   57.2398   38.1220 dc         1 CLA      0.058300
     78 HED3       78.6279   52.7492   38.6753 dc         1 CLA      0.079300
     79 HED2       79.4856   52.6855   37.0878 dc         1 CLA      0.079300
     80 HED1       80.0147   53.8792   38.4308 dc         1 CLA      0.079300
     81 HBC3       74.1464   56.2141   42.9034 dc         1 CLA      0.016300
     82 HBC2       72.6499   55.9074   43.7973 dc         1 CLA      0.016300
     83 HBC1       72.6053   56.4186   42.0552 dc         1 CLA      0.016300
     84 HBB2       80.7662   63.6350   45.0083 da         1 CLA      0.183000
     85 HBB1       81.1889   63.7477   43.1469 da         1 CLA      0.183000
     86 HBA2       80.8459   58.4611   32.7778 dc         1 CLA      0.029400
     87 HBA1       81.8380   58.7071   34.2111 dc         1 CLA      0.029400
     88 HAC2       73.1365   58.1493   44.4018 dc         1 CLA      0.029300
     89 HAC1       72.1291   58.4075   42.9573 dc         1 CLA      0.029300
     90 HAA2       79.0234   57.6917   34.0905 dc         1 CLA      0.028700
     91 HAA1       79.4889   59.3024   34.6368 dc         1 CLA      0.028700
     92 H203       86.1159   57.5547   49.8689 dc         1 CLA      0.065600
     93 H202       85.3619   56.7398   48.5591 dc         1 CLA      0.065600
     94 H201       87.0423   56.4040   48.9756 dc         1 CLA      0.065600
     95 H193       85.1541   59.5227   48.8404 dc         1 CLA      0.065600
     96 H192       85.6816   60.0579   47.2044 dc         1 CLA      0.065600
     97 H191       84.5363   58.7381   47.3231 dc         1 CLA      0.065600
     98 H172       87.1058   58.7822   45.9492 dc         1 CLA      0.027600
     99 H171       85.9621   57.4592   46.0719 dc         1 CLA      0.027600
    100 H162       87.6183   55.8366   46.9327 dc         1 CLA      0.002900
    101 H161       88.8922   57.0437   46.7047 dc         1 CLA      0.002900
    102 H152       87.1169   55.8183   44.6048 dc         1 CLA      0.029100
    103 H151       88.7387   55.4258   44.9886 dc         1 CLA      0.029100
    104 H143       90.1849   58.1733   44.7774 dc         1 CLA      0.063600
    105 H142       90.6172   56.4119   44.4634 dc         1 CLA      0.063600
    106 H141       90.6009   57.7506   43.1287 dc         1 CLA      0.063600
    107 H122       87.4096   56.1914   42.2496 dc         1 CLA      0.032500
    108 H121       88.9781   55.3008   42.4568 dc         1 CLA      0.032500
    109 H112       89.9314   57.3458   41.0910 dc         1 CLA      0.006600
    110 H111       88.3052   57.9689   41.1187 dc         1 CLA      0.006600
    111 H102       89.1216   55.3722   39.8220 dc         1 CLA      0.024100
    112 H101       89.0035   56.9311   39.0733 dc         1 CLA      0.024100
    113 HHD        73.1320   57.6526   40.2525 da         1 CLA      0.174300
    114 HHC        77.3649   61.0062   43.7316 da         1 CLA      0.136800
    115 HHB        81.4678   60.8030   38.6636 da         1 CLA      0.138300
    116 HBD        77.5737   56.2987   34.9460 dc         1 CLA      0.107700
    117 HAB        79.5908   61.4221   44.5136 da         1 CLA      0.155200
    118 H93        86.2633   58.0483   40.4692 dc         1 CLA      0.069500
    119 H92        86.5679   58.1285   38.7420 dc         1 CLA      0.069500
    120 H91        85.0949   57.2133   39.3796 dc         1 CLA      0.069500
    121 H8         86.6309   55.4224   40.0961 dc         1 CLA      0.029300
    122 H72        87.7380   54.7657   38.0430 dc         1 CLA      0.044400
    123 H71        87.2138   56.3098   37.3343 dc         1 CLA      0.044400
    124 H62        84.7793   55.6557   37.7923 dc         1 CLA      0.015600
    125 H61        85.3897   54.1804   38.4074 dc         1 CLA      0.015600
    126 H52        86.3588   53.5231   36.3192 dc         1 CLA      0.033200
    127 H51        85.9715   55.0410   35.4502 dc         1 CLA      0.033200
    128 H43        84.7630   51.7813   36.8647 dc         1 CLA      0.037000
    129 H42        83.2683   51.9071   35.8894 dc         1 CLA      0.037000
    130 H41        84.9205   51.7348   35.0579 dc         1 CLA      0.037000
    131 H3A        81.2859   59.6142   36.2488 dc         1 CLA      0.041100
    132 H2A        80.4038   56.8740   36.3901 dc         1 CLA      0.083100
    133 H2         82.7386   54.7340   36.5898 da         1 CLA      0.180900
    134 H18        87.4795   58.7957   48.3159 dc         1 CLA     -0.003900
    135 H13        88.1687   58.0263   43.5971 dc         1 CLA      0.019700
    136 H12        81.8271   54.2629   34.1558 dc         1 CLA      0.120400
    137 H11        83.4351   54.8301   33.5498 dc         1 CLA      0.120400
    138 C1         69.7917   61.3270   50.4770 Z1         2 LUT      0.509236
    139 C2         69.8751   62.5719   51.2832 Z2         2 LUT     -0.434695
    140 C3         68.5107   63.4269   51.3013 Z3         2 LUT      0.437453
    141 O3         68.8740   64.8127   51.2829 S1         2 LUT     -0.547129
    142 C4         67.5151   63.1691   50.2084 Z4         2 LUT     -0.468603
    143 C5         68.2159   62.6192   48.9629 Z5         2 LUT      0.279246
    144 C6         69.2879   61.7489   49.0557 Z6         2 LUT     -0.305473
    145 C7         70.1751   61.3555   47.9183 Z7         2 LUT      0.069402
    146 C8         70.7886   62.0644   47.0226 Z8         2 LUT     -0.191631
    147 C9         71.3802   61.8515   45.7988 Z9         2 LUT      0.196698
    148 C10        72.3239   62.7242   45.2628 Y1         2 LUT     -0.208611
    149 C11        73.0038   62.5732   44.0815 Y2         2 LUT      0.030784
    150 C12        74.1208   63.2379   43.6460 Y3         2 LUT     -0.220316
    151 C13        75.0131   62.9991   42.4791 Y4         2 LUT      0.215937
    152 C14        76.1460   63.8703   42.4143 Y5         2 LUT     -0.185793
    153 C15        77.1967   63.9632   41.4564 Y6         2 LUT     -0.057835
    154 C16        68.7919   60.4310   51.2278 Y7         2 LUT     -0.405615
    155 C17        71.2094   60.6160   50.5846 Y7         2 LUT     -0.405615
    156 C18        67.9725   63.5697   47.8652 Y9         2 LUT     -0.369639
    157 C19        71.1015   60.5996   44.9469 W1         2 LUT     -0.333362
    158 C20        74.5089   62.2264   41.3345 W2         2 LUT     -0.323439
    159 C21        88.8558   65.3086   35.7112 Z1         2 LUT      0.406104
    160 C22        89.3237   64.5329   34.3782 Z2         2 LUT     -0.404965
    161 C23        89.3803   65.3497   33.1786 Z3         2 LUT      0.391255
    162 O23        89.4383   64.4988   32.0118 S1         2 LUT     -0.528210
    163 C24        88.0892   66.2029   33.0554 W6         2 LUT     -0.258361
    164 C25        87.1903   66.3905   34.0228 Z5         2 LUT      0.133546
    165 C26        87.3874   65.7784   35.3989 W8         2 LUT     -0.147008
    166 C27        86.6838   66.5103   36.5268 Z7         2 LUT      0.023843
    167 C28        85.4312   66.2736   36.9115 Z8         2 LUT     -0.216987
    168 C29        84.7169   66.7120   38.1132 Z9         2 LUT      0.206524
    169 C30        83.5547   66.0665   38.2946 Y1         2 LUT     -0.215556
    170 C31        82.7304   66.1130   39.4943 Y2         2 LUT      0.025142
    171 C32        81.5863   65.3680   39.7227 Y3         2 LUT     -0.212209
    172 C33        80.5716   65.4774   40.7173 Y4         2 LUT      0.240937
    173 C34        79.4453   64.7531   40.6782 Y5         2 LUT     -0.218862
    174 C35        78.3329   64.7444   41.5728 Y6         2 LUT     -0.023547
    175 C36        89.7044   66.5434   36.1606 Y7         2 LUT     -0.393485
    176 C37        89.0088   64.2095   36.7678 Y7         2 LUT     -0.393485
    177 C38        85.8955   67.0995   33.7189 Y9         2 LUT     -0.387526
    178 C39        85.3045   67.8383   39.0472 W1         2 LUT     -0.322618
    179 C40        80.9868   66.4756   41.7673 W2         2 LUT     -0.358472
    180 H403       80.7727   67.5449   41.5617 R7         2 LUT      0.097720
    181 H402       80.4974   66.2488   42.7181 R7         2 LUT      0.097720
    182 H401       82.0341   66.3588   41.9396 R7         2 LUT      0.097720
    183 H393       84.7450   68.5365   39.6343 R4         2 LUT      0.082505
    184 H392       85.9912   67.4585   39.7754 R4         2 LUT      0.082505
    185 H391       85.9777   68.4372   38.5063 R4         2 LUT      0.082505
    186 H383       85.0630   66.4110   33.4805 R1         2 LUT      0.104030
    187 H382       85.6104   67.7727   34.4968 R1         2 LUT      0.104030
    188 H381       86.0520   67.6755   32.7530 R1         2 LUT      0.104030
    189 H373       90.0176   63.7628   36.9769 T4         2 LUT      0.089537
    190 H372       88.4495   64.4935   37.6521 T4         2 LUT      0.089537
    191 H371       88.4477   63.2924   36.3562 T4         2 LUT      0.089537
    192 H363       89.4921   67.4961   35.5789 T4         2 LUT      0.089537
    193 H362       89.7846   66.7329   37.1713 T4         2 LUT      0.089537
    194 H361       90.7827   66.3947   35.8756 T4         2 LUT      0.089537
    195 H222       90.2779   63.9559   34.4570 U2         2 LUT      0.127376
    196 H221       88.6940   63.7048   34.0419 U2         2 LUT      0.127376
    197 H203       73.7965   62.8695   40.7968 R7         2 LUT      0.087068
    198 H202       75.2945   61.8751   40.6306 R7         2 LUT      0.087068
    199 H201       73.8944   61.3383   41.7022 R7         2 LUT      0.087068
    200 H193       70.5338   59.8280   45.4348 R4         2 LUT      0.089716
    201 H192       70.5642   60.8128   43.9836 R4         2 LUT      0.089716
    202 H191       72.1223   60.1493   44.6338 R4         2 LUT      0.089716
    203 H183       66.8840   63.7115   47.7090 R1         2 LUT      0.094572
    204 H182       68.4523   64.5454   48.0114 R1         2 LUT      0.094572
    205 H181       68.3314   63.1034   46.9442 R1         2 LUT      0.094572
    206 H173       72.0072   61.4175   50.5024 T4         2 LUT      0.093752
    207 H172       71.2413   60.1002   51.4975 T4         2 LUT      0.093752
    208 H171       71.3237   59.9657   49.7712 T4         2 LUT      0.093752
    209 H163       68.5259   59.5407   50.6040 T4         2 LUT      0.093752
    210 H162       69.2360   60.0833   52.1292 T4         2 LUT      0.093752
    211 H161       67.8552   60.9151   51.5645 T4         2 LUT      0.093752
    212 HO3        68.2067   65.3215   51.7812 Q1         2 LUT      0.300121
    213 H8         70.7216   63.1079   47.3084 U7         2 LUT      0.080784
    214 H7         70.2057   60.2644   47.7197 U6         2 LUT      0.042190
    215 H42        66.6930   62.4499   50.5322 U5         2 LUT      0.145166
    216 H41        66.8685   64.0232   49.9844 U5         2 LUT      0.145166
    217 H35        78.3088   65.3894   42.4189 T3         2 LUT      0.077919
    218 H34        79.3793   64.1931   39.7559 T2         2 LUT      0.073626
    219 H32        81.2597   64.8725   38.7614 T1         2 LUT      0.092510
    220 H31        83.0151   66.9324   40.1262 U9         2 LUT      0.070048
    221 H30        83.1771   65.3251   37.6038 U8         2 LUT      0.085442
    222 H3         68.0326   63.2020   52.2764 U3         2 LUT     -0.031596
    223 H28        84.9665   65.4177   36.4908 U7         2 LUT      0.084728
    224 H27        87.2888   67.0635   37.2187 U6         2 LUT      0.087291
    225 H26        86.9512   64.7749   35.4380 Q6         2 LUT      0.075325
    226 H24        87.7659   66.4616   32.0567 Q5         2 LUT      0.094482
    227 H23        90.1335   66.1903   33.1904 U3         2 LUT     -0.024869
    228 H22        70.2898   62.4076   52.3352 U2         2 LUT      0.127376
    229 H21        70.5476   63.2201   50.6911 U2         2 LUT      0.127376
    230 H15        77.0949   63.3726   40.5872 T3         2 LUT      0.093200
    231 H14        76.3539   64.5522   43.2929 T2         2 LUT      0.068865
    232 H12        74.4816   63.9144   44.3841 T1         2 LUT      0.095507
    233 H11        72.6868   61.7506   43.3861 U9         2 LUT      0.068930
    234 H10        72.5897   63.4992   45.9690 U8         2 LUT      0.083911
    235 H1         89.8185   64.9890   31.2399 Q1         2 LUT      0.297311
@<TRIPOS>BOND
    1     6     1 1
    2     7     2 1
    3     8     3 1
    4     9     4 1
    5    11     4 1
    6    12     6 1
    7    13     9 1
    8    16     9 1
    9    25     5 1
   10    25    16 1
   11    26    10 1
   12    26    17 1
   13    27    18 1
   14    28    14 1
   15    28    19 1
   16    29    12 1
   17    30    13 1
   18    31    24 1
   19    32     1 1
   20    32    25 1
   21    33    21 1
   22    33    26 1
   23    34    22 1
   24    34    27 1
   25    35    23 1
   26    35    28 1
   27    36    12 1
   28    36    24 1
   29    37    13 1
   30    37    15 1
   31    38    31 1
   32    39    20 1
   33    39    32 1
   34    40     2 1
   35    40    33 1
   36    41     3 1
   37    41    34 1
   38    42     4 1
   39    42    35 1
   40    43    38 1
   41    44     5 1
   42    44    17 1
   43    44    39 1
   44    45    10 1
   45    45    18 1
   46    45    40 1
   47    46    19 1
   48    46    41 1
   49    47    14 1
   50    47    16 1
   51    47    42 1
   52    48    38 1
   53    49    48 1
   54    50    49 1
   55    51    50 1
   56    52    51 1
   57    53    51 1
   58    54    53 1
   59    55    54 1
   60    56    55 1
   61    57    56 1
   62    58    56 1
   63    59    58 1
   64    60    59 1
   65    61    60 1
   66    62    61 1
   67    63    61 1
   68    64    27 1
   69    64    46 1
   70    65     5 1
   71    65    10 1
   72    65    64 1
   73    65    14 1
   74    66    23 1
   75    67    23 1
   76    68    23 1
   77    69    22 1
   78    70    22 1
   79    71    22 1
   80    72    21 1
   81    73    21 1
   82    74    21 1
   83    75    20 1
   84    76    20 1
   85    77    20 1
   86    78    15 1
   87    79    15 1
   88    80    15 1
   89    81     8 1
   90    82     8 1
   91    83     8 1
   92    84     7 1
   93    85     7 1
   94    86     6 1
   95    87     6 1
   96    88     3 1
   97    89     3 1
   98    90     1 1
   99    91     1 1
  100    92    63 1
  101    93    63 1
  102    94    63 1
  103    95    62 1
  104    96    62 1
  105    97    62 1
  106    98    60 1
  107    99    60 1
  108   100    59 1
  109   101    59 1
  110   102    58 1
  111   103    58 1
  112   104    57 1
  113   105    57 1
  114   106    57 1
  115   107    55 1
  116   108    55 1
  117   109    54 1
  118   110    54 1
  119   111    53 1
  120   112    53 1
  121   113    19 1
  122   114    18 1
  123   115    17 1
  124   116     9 1
  125   117     2 1
  126   118    52 1
  127   119    52 1
  128   120    52 1
  129   121    51 1
  130   122    50 1
  131   123    50 1
  132   124    49 1
  133   125    49 1
  134   126    48 1
  135   127    48 1
  136   128    43 1
  137   129    43 1
  138   130    43 1
  139   131    39 1
  140   132    32 1
  141   133    31 1
  142   134    61 1
  143   135    56 1
  144   136    24 1
  145   137    24 1
  146   139   138 1
  147   140   139 1
  148   141   140 1
  149   142   140 1
  150   143   142 1
  151   144   138 1
  152   144   143 1
  153   145   144 1
  154   146   145 1
  155   147   146 1
  156   148   147 1
  157   149   148 1
  158   150   149 1
  159   151   150 1
  160   152   151 1
  161   153   152 1
  162   154   138 1
  163   155   138 1
  164   156   143 1
  165   157   147 1
  166   158   151 1
  167   160   159 1
  168   161   160 1
  169   162   161 1
  170   163   161 1
  171   164   163 1
  172   165   159 1
  173   165   164 1
  174   166   165 1
  175   167   166 1
  176   168   167 1
  177   169   168 1
  178   170   169 1
  179   171   170 1
  180   172   171 1
  181   173   172 1
  182   174   153 1
  183   174   173 1
  184   175   159 1
  185   176   159 1
  186   177   164 1
  187   178   168 1
  188   179   172 1
  189   180   179 1
  190   181   179 1
  191   182   179 1
  192   183   178 1
  193   184   178 1
  194   185   178 1
  195   186   177 1
  196   187   177 1
  197   188   177 1
  198   189   176 1
  199   190   176 1
  200   191   176 1
  201   192   175 1
  202   193   175 1
  203   194   175 1
  204   195   160 1
  205   196   160 1
  206   197   158 1
  207   198   158 1
  208   199   158 1
  209   200   157 1
  210   201   157 1
  211   202   157 1
  212   203   156 1
  213   204   156 1
  214   205   156 1
  215   206   155 1
  216   207   155 1
  217   208   155 1
  218   209   154 1
  219   210   154 1
  220   211   154 1
  221   212   141 1
  222   213   146 1
  223   214   145 1
  224   215   142 1
  225   216   142 1
  226   217   174 1
  227   218   173 1
  228   219   171 1
  229   220   170 1
  230   221   169 1
  231   222   140 1
  232   223   167 1
  233   224   166 1
  234   225   165 1
  235   226   163 1
  236   227   161 1
  237   228   139 1
  238   229   139 1
  239   230   153 1
  240   231   152 1
  241   232   150 1
  242   233   149 1
  243   234   148 1
  244   235   162 1
  245   65    153 1
  246   65    174 1
@<TRIPOS>SUBSTRUCTURE
      1 CLA               1 ****               0 ****  **** 
      2 LUT             138 ****               0 ****  **** 
