@<TRIPOS>MOLECULE
Cpptraj generated mol2 file.
  235   246     2     0     0
SMALL
USER_CHARGES


@<TRIPOS>ATOM
      1 CAA        77.6815   57.7111   33.2059 a2         1 CLA     -0.055900
      2 CAB        76.5541   61.3602   42.1369 c8         1 CLA     -0.148500
      3 CAC        70.1414   56.8343   41.1650 a2         1 CLA     -0.012600
      4 CAD        73.2947   55.3147   33.6683 ck         1 CLA      0.398800
      5 NA         76.3099   58.1222   36.4789 ns         1 CLA     -0.225500
      6 CBA        79.1281   57.6156   32.6391 a2         1 CLA     -0.135000
      7 CBB        77.4755   61.0347   43.0782 c0         1 CLA     -0.395200
      8 CBC        70.2939   55.2642   41.0952 a3         1 CLA     -0.037700
      9 CBD        74.7844   55.9122   33.5986 a1         1 CLA     -0.053900
     10 NB         75.8366   59.5247   39.0253 nm         1 CLA     -0.295700
     11 OBD        72.7063   54.5722   32.8731 o2         1 CLA     -0.494600
     12 CGA        79.5979   56.1909   32.2795 c4         1 CLA      0.827000
     13 CGD        75.7628   54.7334   33.4648 c4         1 CLA      0.655300
     14 ND         73.4362   57.2207   36.7084 nm         1 CLA     -0.291600
     15 CED        77.1615   53.1685   34.7327 a3         1 CLA      0.005400
     16 CHA        75.0149   56.8463   34.7973 cs         1 CLA     -0.123800
     17 CHB        77.9298   59.3071   37.8291 aa         1 CLA     -0.291900
     18 CHC        74.4101   59.6108   41.0516 aa         1 CLA     -0.090400
     19 CHD        71.5101   56.8441   38.2104 aa         1 CLA     -0.052000
     20 CMA        79.7490   57.2690   36.3405 a3         1 CLA     -0.230700
     21 CMB        79.1383   61.0340   39.9909 a3         1 CLA     -0.180800
     22 CMC        71.9898   58.8518   42.8618 a3         1 CLA     -0.134000
     23 CMD        70.4885   55.1421   35.8529 a3         1 CLA     -0.141100
     24 C1         81.0362   54.4648   33.1092 a2         1 CLA      0.023000
     25 C1A        76.2297   57.3143   35.3616 ac         1 CLA     -0.015100
     26 C1B        77.1866   59.7967   38.8556 cr         1 CLA      0.054700
     27 C1C        73.1897   58.8916   40.6599 cn         1 CLA     -0.005600
     28 C1D        72.1967   56.6912   36.9926 ap         1 CLA     -0.047300
     29 O1A        79.1913   55.4140   31.4057 o2         1 CLA     -0.610800
     30 O1D        76.2597   54.3417   32.4283 o2         1 CLA     -0.558200
     31 C2         81.8064   54.4261   34.4167 c8         1 CLA     -0.325100
     32 C2A        77.6415   57.2448   34.7069 a1         1 CLA      0.098600
     33 C2B        77.6819   60.5414   39.9100 cb         1 CLA      0.088500
     34 C2C        72.0858   58.4825   41.4806 cb         1 CLA      0.053700
     35 C2D        71.7524   55.8902   35.8759 cb         1 CLA      0.058900
     36 O2A        80.6876   55.8522   33.0579 o1         1 CLA     -0.437200
     37 O2D        76.1246   54.2000   34.7088 o1         1 CLA     -0.357600
     38 C3         82.1432   53.2502   34.9795 c5         1 CLA      0.031200
     39 C3A        78.5801   58.0766   35.7088 a1         1 CLA      0.166800
     40 C3B        76.6164   60.7533   40.8193 cb         1 CLA      0.035000
     41 C3C        71.3079   57.6469   40.6847 cb         1 CLA     -0.089900
     42 C3D        72.7852   55.9080   34.9207 cb         1 CLA     -0.035900
     43 C4         81.2714   52.4034   35.9646 a3         1 CLA     -0.053300
     44 C4A        77.5314   58.5800   36.7456 ac         1 CLA      0.001800
     45 C4B        75.5245   59.9599   40.3085 cn         1 CLA     -0.020900
     46 C4C        71.9236   57.5819   39.3368 cr         1 CLA     -0.044400
     47 C4D        73.8228   56.7107   35.4899 c6         1 CLA     -0.046000
     48 C5         83.5249   52.7361   34.6991 a2         1 CLA     -0.070400
     49 C6         84.6275   53.7505   35.0043 a2         1 CLA      0.043900
     50 C7         84.5871   54.1484   36.5402 a2         1 CLA     -0.150000
     51 C8         85.1132   55.5709   36.8591 a1         1 CLA      0.064200
     52 C9         86.5902   55.6819   36.4665 a3         1 CLA     -0.259300
     53 C10        84.8018   55.9786   38.3115 a2         1 CLA     -0.071900
     54 C11        83.4834   55.7454   38.9116 a2         1 CLA      0.014500
     55 C12        83.3249   56.3904   40.2509 a2         1 CLA     -0.112100
     56 C13        82.0220   55.9827   40.9649 a1         1 CLA      0.089200
     57 C14        80.7953   56.5176   40.1649 a3         1 CLA     -0.239100
     58 C15        82.1269   56.3547   42.4116 a2         1 CLA     -0.102200
     59 C16        81.8835   57.8313   42.7215 a2         1 CLA      0.023900
     60 C17        82.0823   58.1433   44.2175 a2         1 CLA     -0.105700
     61 C18        82.0057   59.5865   44.6506 a1         1 CLA      0.206800
     62 C19        80.6110   60.1666   44.3414 a3         1 CLA     -0.280100
     63 C20        82.3434   59.7601   46.0702 a3         1 CLA     -0.280100
     64 NC         73.0327   58.3232   39.3659 nx         1 CLA     -0.309200
     65 MG         74.5695   58.5487   37.8084 mg         1 CLA      0.895000
     66 HMD3       70.2876   54.7838   36.8251 dc         1 CLA      0.064300
     67 HMD2       69.7353   55.8923   35.5830 dc         1 CLA      0.064300
     68 HMD1       70.6089   54.2469   35.1748 dc         1 CLA      0.064300
     69 HMC3       71.9285   59.9240   42.9858 dc         1 CLA      0.052100
     70 HMC2       71.1844   58.2556   43.2951 dc         1 CLA      0.052100
     71 HMC1       72.8205   58.3943   43.3490 dc         1 CLA      0.052100
     72 HMB3       79.8055   60.2371   40.1926 dc         1 CLA      0.063600
     73 HMB2       79.4121   61.5730   39.1156 dc         1 CLA      0.063600
     74 HMB1       79.1626   61.6855   40.9192 dc         1 CLA      0.063600
     75 HMA3       80.3536   57.8347   37.1121 dc         1 CLA      0.058300
     76 HMA2       79.3133   56.4103   36.8824 dc         1 CLA      0.058300
     77 HMA1       80.4043   56.8555   35.5675 dc         1 CLA      0.058300
     78 HED3       77.3431   53.1448   35.8217 dc         1 CLA      0.079300
     79 HED2       76.6346   52.2461   34.3177 dc         1 CLA      0.079300
     80 HED1       78.0162   53.5176   34.2128 dc         1 CLA      0.079300
     81 HBC3       69.5586   54.7398   41.6936 dc         1 CLA      0.016300
     82 HBC2       70.1508   54.8623   40.0818 dc         1 CLA      0.016300
     83 HBC1       71.2811   54.8857   41.3930 dc         1 CLA      0.016300
     84 HBB2       77.4404   61.4101   44.0718 da         1 CLA      0.183000
     85 HBB1       78.1269   60.1765   42.9334 da         1 CLA      0.183000
     86 HBA2       79.2902   58.1541   31.6775 dc         1 CLA      0.029400
     87 HBA1       79.8392   58.0078   33.3267 dc         1 CLA      0.029400
     88 HAC2       69.9529   56.9305   42.1671 dc         1 CLA      0.029300
     89 HAC1       69.2409   57.1644   40.6673 dc         1 CLA      0.029300
     90 HAA2       77.0291   57.1573   32.6030 dc         1 CLA      0.028700
     91 HAA1       77.5330   58.8491   33.1606 dc         1 CLA      0.028700
     92 H203       81.5044   59.4115   46.7107 dc         1 CLA      0.065600
     93 H202       83.2767   59.2510   46.3045 dc         1 CLA      0.065600
     94 H201       82.5722   60.8231   46.3917 dc         1 CLA      0.065600
     95 H193       79.8939   59.4969   44.8798 dc         1 CLA      0.065600
     96 H192       80.4441   61.1668   44.7850 dc         1 CLA      0.065600
     97 H191       80.2842   60.1487   43.2959 dc         1 CLA      0.065600
     98 H172       81.3604   57.5040   44.7373 dc         1 CLA      0.027600
     99 H171       83.0815   57.9206   44.5579 dc         1 CLA      0.027600
    100 H162       82.6445   58.2746   42.1499 dc         1 CLA      0.002900
    101 H161       80.9875   58.2464   42.3149 dc         1 CLA      0.002900
    102 H152       81.2974   55.7707   42.9004 dc         1 CLA      0.029100
    103 H151       83.0544   55.9176   42.8428 dc         1 CLA      0.029100
    104 H143       80.8297   57.6027   40.0036 dc         1 CLA      0.063600
    105 H142       80.5344   55.9564   39.2816 dc         1 CLA      0.063600
    106 H141       79.9180   56.3403   40.7744 dc         1 CLA      0.063600
    107 H122       84.0880   56.0137   41.0070 dc         1 CLA      0.032500
    108 H121       83.5238   57.4503   40.0852 dc         1 CLA      0.032500
    109 H112       82.7831   56.2216   38.2737 dc         1 CLA      0.006600
    110 H111       83.2982   54.6872   39.0887 dc         1 CLA      0.006600
    111 H102       85.3282   55.3866   39.0316 dc         1 CLA      0.024100
    112 H101       85.0669   57.0740   38.4106 dc         1 CLA      0.024100
    113 HHD        70.6261   56.2811   38.4680 da         1 CLA      0.174300
    114 HHC        74.3673   59.9044   42.0508 da         1 CLA      0.136800
    115 HHB        78.9985   59.5785   37.8555 da         1 CLA      0.138300
    116 HBD        74.9388   56.4333   32.6729 dc         1 CLA      0.107700
    117 HAB        75.8182   62.0692   42.3006 da         1 CLA      0.155200
    118 H93        87.2174   54.9741   37.0175 dc         1 CLA      0.069500
    119 H92        86.8320   55.5305   35.4434 dc         1 CLA      0.069500
    120 H91        86.9642   56.7041   36.7041 dc         1 CLA      0.069500
    121 H8         84.6008   56.3043   36.1819 dc         1 CLA      0.029300
    122 H72        83.6198   53.9262   37.0672 dc         1 CLA      0.044400
    123 H71        85.3424   53.4286   36.9167 dc         1 CLA      0.044400
    124 H62        85.6020   53.3286   34.7584 dc         1 CLA      0.015600
    125 H61        84.5451   54.6547   34.4184 dc         1 CLA      0.015600
    126 H52        83.7536   51.8913   35.4298 dc         1 CLA      0.033200
    127 H51        83.5423   52.2910   33.6411 dc         1 CLA      0.033200
    128 H43        80.3582   52.8927   36.2297 dc         1 CLA      0.037000
    129 H42        81.0030   51.5011   35.4306 dc         1 CLA      0.037000
    130 H41        81.8552   52.1776   36.8800 dc         1 CLA      0.037000
    131 H3A        78.9241   58.9336   35.1990 dc         1 CLA      0.041100
    132 H2A        77.8904   56.2554   34.8205 dc         1 CLA      0.083100
    133 H2         82.0733   55.3836   34.9202 da         1 CLA      0.180900
    134 H18        82.7561   60.1021   44.1309 dc         1 CLA     -0.003900
    135 H13        81.9670   54.8968   40.9312 dc         1 CLA      0.019700
    136 H12        80.1345   53.9096   33.3318 dc         1 CLA      0.120400
    137 H11        81.5658   54.0949   32.1718 dc         1 CLA      0.120400
    138 C1         67.1639   60.6800   48.1430 Z1         2 LUT      0.509236
    139 C2         65.9693   60.6850   49.1431 Z2         2 LUT     -0.434695
    140 C3         65.2711   62.0049   49.4186 Z3         2 LUT      0.437453
    141 O3         65.8671   62.6323   50.5885 S1         2 LUT     -0.547129
    142 C4         65.3489   63.0463   48.3014 Z4         2 LUT     -0.468603
    143 C5         66.0243   62.6189   47.0396 Z5         2 LUT      0.279246
    144 C6         66.8368   61.5718   46.8942 Z6         2 LUT     -0.305473
    145 C7         67.1384   61.1320   45.5522 Z7         2 LUT      0.069402
    146 C8         68.4063   60.9695   45.0277 Z8         2 LUT     -0.191631
    147 C9         68.6891   60.7134   43.6312 Z9         2 LUT      0.196698
    148 C10        69.6242   61.5412   43.0481 Y1         2 LUT     -0.208611
    149 C11        70.1385   61.4602   41.7275 Y2         2 LUT      0.030784
    150 C12        71.1113   62.3276   41.4696 Y3         2 LUT     -0.220316
    151 C13        71.9589   62.3712   40.2553 Y4         2 LUT      0.215937
    152 C14        73.2599   62.9015   40.4859 Y5         2 LUT     -0.185793
    153 C15        74.4117   62.9385   39.6498 Y6         2 LUT     -0.057835
    154 C16        67.6212   59.1830   47.9314 Y7         2 LUT     -0.405615
    155 C17        68.2412   61.4350   48.9541 Y7         2 LUT     -0.405615
    156 C18        65.4763   63.5345   45.8650 Y9         2 LUT     -0.369639
    157 C19        67.8639   59.6756   42.8573 W1         2 LUT     -0.333362
    158 C20        71.6021   61.6643   38.9540 W2         2 LUT     -0.323439
    159 C21        86.2719   64.4598   34.4830 Z1         2 LUT      0.406104
    160 C22        87.0081   63.9564   33.2706 Z2         2 LUT     -0.404965
    161 C23        87.0386   64.8302   32.0013 Z3         2 LUT      0.391255
    162 O23        87.2332   63.9655   30.8865 S1         2 LUT     -0.528210
    163 C24        85.6930   65.6042   31.8134 W6         2 LUT     -0.258361
    164 C25        84.7802   65.7304   32.7283 Z5         2 LUT      0.133546
    165 C26        84.8455   65.0358   34.1174 W8         2 LUT     -0.147008
    166 C27        84.0807   65.5797   35.2945 Z7         2 LUT      0.023843
    167 C28        82.8360   65.1297   35.6676 Z8         2 LUT     -0.216987
    168 C29        81.9723   65.7152   36.7193 Z9         2 LUT      0.206524
    169 C30        80.9479   64.8905   37.1462 Y1         2 LUT     -0.215556
    170 C31        79.9624   65.0105   38.2247 Y2         2 LUT      0.025142
    171 C32        78.9075   64.2354   38.4228 Y3         2 LUT     -0.212209
    172 C33        77.8135   64.5173   39.3984 Y4         2 LUT      0.240937
    173 C34        76.7323   63.7433   39.1996 Y5         2 LUT     -0.218862
    174 C35        75.5113   63.6950   40.0201 Y6         2 LUT     -0.023547
    175 C36        87.3657   65.4307   35.1346 Y7         2 LUT     -0.393485
    176 C37        86.1979   63.2812   35.4315 Y7         2 LUT     -0.393485
    177 C38        83.5695   66.5452   32.4837 Y9         2 LUT     -0.387526
    178 C39        82.2638   67.0811   37.2746 W1         2 LUT     -0.322618
    179 C40        78.1496   65.1560   40.6491 W2         2 LUT     -0.358472
    180 H403       78.4479   64.5581   41.4000 R7         2 LUT      0.097720
    181 H402       78.7229   66.0579   40.5965 R7         2 LUT      0.097720
    182 H401       77.2647   65.5559   41.1332 R7         2 LUT      0.097720
    183 H393       82.8745   67.7344   36.6420 R4         2 LUT      0.082505
    184 H392       81.4173   67.6501   37.5265 R4         2 LUT      0.082505
    185 H391       82.8641   66.9744   38.1531 R4         2 LUT      0.082505
    186 H383       83.8275   67.4635   31.9233 R1         2 LUT      0.104030
    187 H382       82.8271   65.9945   31.8709 R1         2 LUT      0.104030
    188 H381       82.8958   66.8622   33.2930 R1         2 LUT      0.104030
    189 H373       85.5611   62.4980   35.0061 T4         2 LUT      0.089537
    190 H372       87.1697   62.8269   35.5133 T4         2 LUT      0.089537
    191 H371       85.8246   63.5044   36.4012 T4         2 LUT      0.089537
    192 H363       88.3720   65.0369   34.9757 T4         2 LUT      0.089537
    193 H362       87.3096   66.3808   34.5389 T4         2 LUT      0.089537
    194 H361       87.1811   65.6994   36.1603 T4         2 LUT      0.089537
    195 H222       87.9627   63.3836   33.4498 U2         2 LUT      0.127376
    196 H221       86.4340   63.1174   32.9135 U2         2 LUT      0.127376
    197 H203       71.5243   60.5646   39.1489 R7         2 LUT      0.087068
    198 H202       70.6132   61.9169   38.6569 R7         2 LUT      0.087068
    199 H201       72.3527   61.7897   38.1921 R7         2 LUT      0.087068
    200 H193       67.4256   58.8284   43.4673 R4         2 LUT      0.089716
    201 H192       67.0033   60.2511   42.4504 R4         2 LUT      0.089716
    202 H191       68.2754   59.1978   41.9647 R4         2 LUT      0.089716
    203 H183       66.0258   64.4825   45.7262 R1         2 LUT      0.094572
    204 H182       65.5428   63.0252   44.9575 R1         2 LUT      0.094572
    205 H181       64.3858   63.7168   45.9290 R1         2 LUT      0.094572
    206 H173       68.4482   61.1559   49.9654 T4         2 LUT      0.093752
    207 H172       69.2105   61.5255   48.3785 T4         2 LUT      0.093752
    208 H171       68.0611   62.4509   49.0608 T4         2 LUT      0.093752
    209 H163       68.5848   59.1036   47.4897 T4         2 LUT      0.093752
    210 H162       67.6595   58.5598   48.8235 T4         2 LUT      0.093752
    211 H161       66.8851   58.5807   47.3877 T4         2 LUT      0.093752
    212 HO3        65.5316   62.1445   51.4048 Q1         2 LUT      0.300121
    213 H8         69.1899   61.1757   45.7398 U7         2 LUT      0.080784
    214 H7         66.3066   61.0721   44.8620 U6         2 LUT      0.042190
    215 H42        64.2998   63.4184   48.1862 U5         2 LUT      0.145166
    216 H41        65.7744   63.9500   48.7047 U5         2 LUT      0.145166
    217 H35        75.4353   64.2584   40.9338 T3         2 LUT      0.077919
    218 H34        76.7703   63.2316   38.2680 T2         2 LUT      0.073626
    219 H32        78.8582   63.3754   37.7701 T1         2 LUT      0.092510
    220 H31        80.0429   65.9306   38.7861 U9         2 LUT      0.070048
    221 H30        80.9425   63.9082   36.6123 U8         2 LUT      0.085442
    222 H3         64.1994   61.7219   49.7039 U3         2 LUT     -0.031596
    223 H28        82.5902   64.0703   35.3044 U7         2 LUT      0.084728
    224 H27        84.5768   66.4864   35.7436 U6         2 LUT      0.087291
    225 H26        84.3691   64.0709   33.8946 Q6         2 LUT      0.075325
    226 H24        85.6256   66.0566   30.8372 Q5         2 LUT      0.094482
    227 H23        87.8088   65.5837   32.2011 U3         2 LUT     -0.024869
    228 H22        65.2015   60.0299   48.6847 U2         2 LUT      0.127376
    229 H21        66.3006   60.1759   50.0668 U2         2 LUT      0.127376
    230 H15        74.3900   62.4677   38.6779 T3         2 LUT      0.093200
    231 H14        73.4833   63.3147   41.4669 T2         2 LUT      0.068865
    232 H12        71.6300   62.8704   42.2872 T1         2 LUT      0.095507
    233 H11        69.6924   60.7887   41.0784 U9         2 LUT      0.068930
    234 H10        70.1161   62.2255   43.7724 U8         2 LUT      0.083911
    235 H1         87.6603   64.3795   30.1835 Q1         2 LUT      0.297311
@<TRIPOS>BOND
    1     6     1 1
    2     7     2 1
    3     8     3 1
    4     9     4 1
    5    11     4 1
    6    12     6 1
    7    13     9 1
    8    16     9 1
    9    25     5 1
   10    25    16 1
   11    26    10 1
   12    26    17 1
   13    27    18 1
   14    28    14 1
   15    28    19 1
   16    29    12 1
   17    30    13 1
   18    31    24 1
   19    32     1 1
   20    32    25 1
   21    33    21 1
   22    33    26 1
   23    34    22 1
   24    34    27 1
   25    35    23 1
   26    35    28 1
   27    36    12 1
   28    36    24 1
   29    37    13 1
   30    37    15 1
   31    38    31 1
   32    39    20 1
   33    39    32 1
   34    40     2 1
   35    40    33 1
   36    41     3 1
   37    41    34 1
   38    42     4 1
   39    42    35 1
   40    43    38 1
   41    44     5 1
   42    44    17 1
   43    44    39 1
   44    45    10 1
   45    45    18 1
   46    45    40 1
   47    46    19 1
   48    46    41 1
   49    47    14 1
   50    47    16 1
   51    47    42 1
   52    48    38 1
   53    49    48 1
   54    50    49 1
   55    51    50 1
   56    52    51 1
   57    53    51 1
   58    54    53 1
   59    55    54 1
   60    56    55 1
   61    57    56 1
   62    58    56 1
   63    59    58 1
   64    60    59 1
   65    61    60 1
   66    62    61 1
   67    63    61 1
   68    64    27 1
   69    64    46 1
   70    65     5 1
   71    65    10 1
   72    65    64 1
   73    65    14 1
   74    66    23 1
   75    67    23 1
   76    68    23 1
   77    69    22 1
   78    70    22 1
   79    71    22 1
   80    72    21 1
   81    73    21 1
   82    74    21 1
   83    75    20 1
   84    76    20 1
   85    77    20 1
   86    78    15 1
   87    79    15 1
   88    80    15 1
   89    81     8 1
   90    82     8 1
   91    83     8 1
   92    84     7 1
   93    85     7 1
   94    86     6 1
   95    87     6 1
   96    88     3 1
   97    89     3 1
   98    90     1 1
   99    91     1 1
  100    92    63 1
  101    93    63 1
  102    94    63 1
  103    95    62 1
  104    96    62 1
  105    97    62 1
  106    98    60 1
  107    99    60 1
  108   100    59 1
  109   101    59 1
  110   102    58 1
  111   103    58 1
  112   104    57 1
  113   105    57 1
  114   106    57 1
  115   107    55 1
  116   108    55 1
  117   109    54 1
  118   110    54 1
  119   111    53 1
  120   112    53 1
  121   113    19 1
  122   114    18 1
  123   115    17 1
  124   116     9 1
  125   117     2 1
  126   118    52 1
  127   119    52 1
  128   120    52 1
  129   121    51 1
  130   122    50 1
  131   123    50 1
  132   124    49 1
  133   125    49 1
  134   126    48 1
  135   127    48 1
  136   128    43 1
  137   129    43 1
  138   130    43 1
  139   131    39 1
  140   132    32 1
  141   133    31 1
  142   134    61 1
  143   135    56 1
  144   136    24 1
  145   137    24 1
  146   139   138 1
  147   140   139 1
  148   141   140 1
  149   142   140 1
  150   143   142 1
  151   144   138 1
  152   144   143 1
  153   145   144 1
  154   146   145 1
  155   147   146 1
  156   148   147 1
  157   149   148 1
  158   150   149 1
  159   151   150 1
  160   152   151 1
  161   153   152 1
  162   154   138 1
  163   155   138 1
  164   156   143 1
  165   157   147 1
  166   158   151 1
  167   160   159 1
  168   161   160 1
  169   162   161 1
  170   163   161 1
  171   164   163 1
  172   165   159 1
  173   165   164 1
  174   166   165 1
  175   167   166 1
  176   168   167 1
  177   169   168 1
  178   170   169 1
  179   171   170 1
  180   172   171 1
  181   173   172 1
  182   174   153 1
  183   174   173 1
  184   175   159 1
  185   176   159 1
  186   177   164 1
  187   178   168 1
  188   179   172 1
  189   180   179 1
  190   181   179 1
  191   182   179 1
  192   183   178 1
  193   184   178 1
  194   185   178 1
  195   186   177 1
  196   187   177 1
  197   188   177 1
  198   189   176 1
  199   190   176 1
  200   191   176 1
  201   192   175 1
  202   193   175 1
  203   194   175 1
  204   195   160 1
  205   196   160 1
  206   197   158 1
  207   198   158 1
  208   199   158 1
  209   200   157 1
  210   201   157 1
  211   202   157 1
  212   203   156 1
  213   204   156 1
  214   205   156 1
  215   206   155 1
  216   207   155 1
  217   208   155 1
  218   209   154 1
  219   210   154 1
  220   211   154 1
  221   212   141 1
  222   213   146 1
  223   214   145 1
  224   215   142 1
  225   216   142 1
  226   217   174 1
  227   218   173 1
  228   219   171 1
  229   220   170 1
  230   221   169 1
  231   222   140 1
  232   223   167 1
  233   224   166 1
  234   225   165 1
  235   226   163 1
  236   227   161 1
  237   228   139 1
  238   229   139 1
  239   230   153 1
  240   231   152 1
  241   232   150 1
  242   233   149 1
  243   234   148 1
  244   235   162 1
  245   65    153 1
  246   65    174 1
@<TRIPOS>SUBSTRUCTURE
      1 CLA               1 ****               0 ****  **** 
      2 LUT             138 ****               0 ****  **** 
