@<TRIPOS>MOLECULE
Cpptraj generated mol2 file.
  235   246     2     0     0
SMALL
USER_CHARGES


@<TRIPOS>ATOM
      1 CAA        79.9649   57.6206   35.0260 a2         1 CLA     -0.055900
      2 CAB        79.7341   61.9837   43.7531 c8         1 CLA     -0.148500
      3 CAC        72.9658   57.7290   43.4299 a2         1 CLA     -0.012600
      4 CAD        75.9068   54.9960   36.4365 ck         1 CLA      0.398800
      5 NA         78.8683   58.3999   38.3008 ns         1 CLA     -0.225500
      6 CBA        81.2348   57.4196   34.3024 a2         1 CLA     -0.135000
      7 CBB        80.9018   62.3961   44.4039 c0         1 CLA     -0.395200
      8 CBC        73.0882   56.2130   43.4325 a3         1 CLA     -0.037700
      9 CBD        77.3570   55.4602   36.1649 a1         1 CLA     -0.053900
     10 NB         78.6900   59.8526   40.8898 nm         1 CLA     -0.295700
     11 OBD        75.2510   54.1238   35.8727 o2         1 CLA     -0.494600
     12 CGA        81.5750   55.9380   33.9260 c4         1 CLA      0.827000
     13 CGD        78.2491   54.2077   36.2522 c4         1 CLA      0.655300
     14 ND         76.0414   57.5088   38.8679 nm         1 CLA     -0.291600
     15 CED        78.9073   52.3556   37.5631 a3         1 CLA      0.005400
     16 CHA        77.6159   56.5972   37.1361 cs         1 CLA     -0.123800
     17 CHB        80.6133   59.8543   39.2584 aa         1 CLA     -0.291900
     18 CHC        77.2721   60.3605   42.8473 aa         1 CLA     -0.090400
     19 CHD        74.1948   57.4883   40.4137 aa         1 CLA     -0.052000
     20 CMA        82.2302   57.6093   37.9622 a3         1 CLA     -0.230700
     21 CMB        81.8874   61.8469   41.2700 a3         1 CLA     -0.180800
     22 CMC        75.0168   59.9049   44.8731 a3         1 CLA     -0.134000
     23 CMD        72.8826   55.4908   38.2261 a3         1 CLA     -0.141100
     24 C1         82.4404   53.9670   34.8577 a2         1 CLA      0.023000
     25 C1A        78.8109   57.3686   37.4262 ac         1 CLA     -0.015100
     26 C1B        79.9609   60.2114   40.4671 cr         1 CLA      0.054700
     27 C1C        76.1724   59.5470   42.5110 cn         1 CLA     -0.005600
     28 C1D        74.7806   57.0770   39.2095 ap         1 CLA     -0.047300
     29 O1A        81.5240   55.4383   32.8041 o2         1 CLA     -0.610800
     30 O1D        79.1546   53.8802   35.4727 o2         1 CLA     -0.558200
     31 C2         82.9123   53.5233   36.2264 c8         1 CLA     -0.325100
     32 C2A        80.0898   57.3205   36.5255 a1         1 CLA      0.098600
     33 C2B        80.5841   61.0554   41.4430 cb         1 CLA      0.088500
     34 C2C        75.0406   59.3808   43.4200 cb         1 CLA      0.053700
     35 C2D        74.2548   56.1243   38.2849 cb         1 CLA      0.058900
     36 O2A        82.1951   55.3974   35.0712 o1         1 CLA     -0.437200
     37 O2D        78.1591   53.6266   37.4944 o1         1 CLA     -0.357600
     38 C3         83.9823   52.8068   36.5076 c5         1 CLA      0.031200
     39 C3A        81.0883   58.3008   37.2619 a1         1 CLA      0.166800
     40 C3B        79.6682   61.2031   42.5034 cb         1 CLA      0.035000
     41 C3C        74.1925   58.4185   42.7831 cb         1 CLA     -0.089900
     42 C3D        75.3809   55.7907   37.4975 cb         1 CLA     -0.035900
     43 C4         83.9255   51.2716   36.7287 a3         1 CLA     -0.053300
     44 C4A        80.1700   58.9607   38.2856 ac         1 CLA      0.001800
     45 C4B        78.4524   60.4502   42.1174 cn         1 CLA     -0.020900
     46 C4C        74.7131   58.3008   41.3974 cr         1 CLA     -0.044400
     47 C4D        76.4610   56.7096   37.8947 c6         1 CLA     -0.046000
     48 C5         85.3030   53.4976   36.7865 a2         1 CLA     -0.070400
     49 C6         85.3226   54.5473   37.8223 a2         1 CLA      0.043900
     50 C7         86.7342   54.9398   38.1642 a2         1 CLA     -0.150000
     51 C8         86.8807   55.8025   39.4765 a1         1 CLA      0.064200
     52 C9         86.0620   57.1275   39.3528 a3         1 CLA     -0.259300
     53 C10        88.4246   55.9970   39.8211 a2         1 CLA     -0.071900
     54 C11        88.8476   56.5850   41.1300 a2         1 CLA      0.014500
     55 C12        88.6511   55.5252   42.2966 a2         1 CLA     -0.112100
     56 C13        89.0360   55.9010   43.7627 a1         1 CLA      0.089200
     57 C14        88.9313   54.6887   44.6837 a3         1 CLA     -0.239100
     58 C15        88.2075   57.1888   44.2880 a2         1 CLA     -0.102200
     59 C16        88.7285   57.7593   45.6502 a2         1 CLA      0.023900
     60 C17        87.7393   58.8119   46.2083 a2         1 CLA     -0.105700
     61 C18        86.2784   58.3007   46.6333 a1         1 CLA      0.206800
     62 C19        86.2726   57.3382   47.8273 a3         1 CLA     -0.280100
     63 C20        85.4272   59.6060   47.0035 a3         1 CLA     -0.280100
     64 NC         75.9520   58.8684   41.3443 nx         1 CLA     -0.309200
     65 MG         77.3494   58.8483   39.7460 mg         1 CLA      0.895000
     66 HMD3       72.1689   56.1467   38.6522 dc         1 CLA      0.064300
     67 HMD2       72.5850   55.2852   37.2144 dc         1 CLA      0.064300
     68 HMD1       72.7274   54.5284   38.7396 dc         1 CLA      0.064300
     69 HMC3       73.9692   59.9838   45.1486 dc         1 CLA      0.052100
     70 HMC2       75.4432   59.0338   45.4052 dc         1 CLA      0.052100
     71 HMC1       75.5974   60.8582   45.0615 dc         1 CLA      0.052100
     72 HMB3       82.6683   61.1870   41.6246 dc         1 CLA      0.063600
     73 HMB2       82.0469   62.2630   40.3143 dc         1 CLA      0.063600
     74 HMB1       81.8744   62.7550   41.8820 dc         1 CLA      0.063600
     75 HMA3       82.7593   58.3120   38.6181 dc         1 CLA      0.058300
     76 HMA2       81.9170   56.7477   38.5291 dc         1 CLA      0.058300
     77 HMA1       82.8605   57.1737   37.1955 dc         1 CLA      0.058300
     78 HED3       78.7430   51.8224   36.6427 dc         1 CLA      0.079300
     79 HED2       79.9617   52.6054   37.6587 dc         1 CLA      0.079300
     80 HED1       78.6358   51.6587   38.2918 dc         1 CLA      0.079300
     81 HBC3       72.5906   55.8981   44.3826 dc         1 CLA      0.016300
     82 HBC2       72.4734   55.8093   42.6047 dc         1 CLA      0.016300
     83 HBC1       74.1559   55.9115   43.4159 dc         1 CLA      0.016300
     84 HBB2       80.9099   63.0572   45.3091 da         1 CLA      0.183000
     85 HBB1       81.8425   61.9988   44.0502 da         1 CLA      0.183000
     86 HBA2       81.2342   57.9507   33.3489 dc         1 CLA      0.029400
     87 HBA1       82.0626   57.9232   34.8832 dc         1 CLA      0.029400
     88 HAC2       72.8899   58.0196   44.5125 dc         1 CLA      0.029300
     89 HAC1       72.1066   58.0812   42.7933 dc         1 CLA      0.029300
     90 HAA2       79.1690   56.9776   34.6143 dc         1 CLA      0.028700
     91 HAA1       79.6192   58.6835   34.9632 dc         1 CLA      0.028700
     92 H203       85.8500   60.0009   47.9234 dc         1 CLA      0.065600
     93 H202       85.4806   60.3475   46.2209 dc         1 CLA      0.065600
     94 H201       84.4217   59.3160   47.1537 dc         1 CLA      0.065600
     95 H193       86.5709   56.3883   47.5482 dc         1 CLA      0.065600
     96 H192       86.9466   57.6907   48.5953 dc         1 CLA      0.065600
     97 H191       85.2654   57.2361   48.2754 dc         1 CLA      0.065600
     98 H172       88.2835   59.2636   47.0378 dc         1 CLA      0.027600
     99 H171       87.6436   59.5139   45.4408 dc         1 CLA      0.027600
    100 H162       88.8631   56.9281   46.3399 dc         1 CLA      0.002900
    101 H161       89.7234   58.1629   45.4547 dc         1 CLA      0.002900
    102 H152       88.3300   58.0111   43.5639 dc         1 CLA      0.029100
    103 H151       87.1126   56.9124   44.3076 dc         1 CLA      0.029100
    104 H143       89.4288   53.8552   44.1309 dc         1 CLA      0.063600
    105 H142       89.4944   54.9205   45.6450 dc         1 CLA      0.063600
    106 H141       87.8994   54.4725   44.8583 dc         1 CLA      0.063600
    107 H122       87.5975   55.2833   42.4588 dc         1 CLA      0.032500
    108 H121       89.0443   54.5663   42.0167 dc         1 CLA      0.032500
    109 H112       89.9042   56.7284   41.0998 dc         1 CLA      0.006600
    110 H111       88.2763   57.5430   41.3053 dc         1 CLA      0.006600
    111 H102       89.0387   55.1306   39.6181 dc         1 CLA      0.024100
    112 H101       88.8515   56.7097   39.1258 dc         1 CLA      0.024100
    113 HHD        73.1693   57.1835   40.6414 da         1 CLA      0.174300
    114 HHC        77.2610   60.7504   43.8296 da         1 CLA      0.136800
    115 HHB        81.6681   60.1410   39.2599 da         1 CLA      0.138300
    116 HBD        77.4646   55.8363   35.1259 dc         1 CLA      0.107700
    117 HAB        78.7664   62.1604   44.2647 da         1 CLA      0.155200
    118 H93        86.5032   57.8492   38.6299 dc         1 CLA      0.069500
    119 H92        85.0101   56.8805   39.1219 dc         1 CLA      0.069500
    120 H91        86.0202   57.5765   40.2657 dc         1 CLA      0.069500
    121 H8         86.3606   55.2089   40.2371 dc         1 CLA      0.029300
    122 H72        87.3407   54.0580   38.3602 dc         1 CLA      0.044400
    123 H71        87.1235   55.5407   37.3373 dc         1 CLA      0.044400
    124 H62        84.6840   55.4197   37.5355 dc         1 CLA      0.015600
    125 H61        84.9648   54.0637   38.6785 dc         1 CLA      0.015600
    126 H52        86.1029   52.8227   36.9979 dc         1 CLA      0.033200
    127 H51        85.6743   53.8760   35.8387 dc         1 CLA      0.033200
    128 H43        84.1564   50.7230   35.8288 dc         1 CLA      0.037000
    129 H42        84.7185   51.0083   37.4254 dc         1 CLA      0.037000
    130 H41        82.9687   50.8245   37.1976 dc         1 CLA      0.037000
    131 H3A        81.4210   59.0640   36.6395 dc         1 CLA      0.041100
    132 H2A        80.4102   56.3100   36.5721 dc         1 CLA      0.083100
    133 H2         82.4149   54.0600   37.0507 da         1 CLA      0.180900
    134 H18        85.8045   57.6985   45.8116 dc         1 CLA     -0.003900
    135 H13        90.1737   55.9899   43.7072 dc         1 CLA      0.019700
    136 H12        81.6195   53.3425   34.5927 dc         1 CLA      0.120400
    137 H11        83.1119   53.7954   34.0778 dc         1 CLA      0.120400
    138 C1         70.0862   61.6235   50.3103 Z1         2 LUT      0.509236
    139 C2         69.3945   62.2119   51.6261 Z2         2 LUT     -0.434695
    140 C3         67.9877   62.6004   51.3188 Z3         2 LUT      0.437453
    141 O3         67.5191   63.2587   52.4915 S1         2 LUT     -0.547129
    142 C4         68.0100   63.6650   50.2033 Z4         2 LUT     -0.468603
    143 C5         68.7219   63.2477   48.9653 Z5         2 LUT      0.279246
    144 C6         69.7225   62.3436   49.0514 Z6         2 LUT     -0.305473
    145 C7         70.5148   61.7931   47.8870 Z7         2 LUT      0.069402
    146 C8         71.3505   62.5474   47.1087 Z8         2 LUT     -0.191631
    147 C9         71.8886   62.0727   45.7767 Z9         2 LUT      0.196698
    148 C10        72.9360   62.8042   45.2443 Y1         2 LUT     -0.208611
    149 C11        73.5666   62.7263   43.9419 Y2         2 LUT      0.030784
    150 C12        74.7516   63.3774   43.6317 Y3         2 LUT     -0.220316
    151 C13        75.7120   63.2759   42.5667 Y4         2 LUT      0.215937
    152 C14        76.8408   64.0366   42.6600 Y5         2 LUT     -0.185793
    153 C15        77.9220   64.0693   41.7466 Y6         2 LUT     -0.057835
    154 C16        69.8659   60.0432   50.2870 Y7         2 LUT     -0.405615
    155 C17        71.6291   61.5567   50.6374 Y7         2 LUT     -0.405615
    156 C18        68.1680   63.9721   47.7533 Y9         2 LUT     -0.369639
    157 C19        71.2070   60.9698   45.0043 W1         2 LUT     -0.333362
    158 C20        75.2200   62.7608   41.1926 W2         2 LUT     -0.323439
    159 C21        89.3593   64.9207   35.7491 Z1         2 LUT      0.406104
    160 C22        89.8469   64.0688   34.5761 Z2         2 LUT     -0.404965
    161 C23        89.8943   64.9208   33.2673 Z3         2 LUT      0.391255
    162 O23        89.8297   63.8746   32.3104 S1         2 LUT     -0.528210
    163 C24        88.7343   65.8450   33.1244 W6         2 LUT     -0.258361
    164 C25        87.7950   66.0492   34.0216 Z5         2 LUT      0.133546
    165 C26        87.9093   65.4814   35.4884 W8         2 LUT     -0.147008
    166 C27        87.2893   66.2904   36.6372 Z7         2 LUT      0.023843
    167 C28        86.0558   66.0032   37.1512 Z8         2 LUT     -0.216987
    168 C29        85.3752   66.5933   38.2883 Z9         2 LUT      0.206524
    169 C30        84.2668   65.9633   38.6623 Y1         2 LUT     -0.215556
    170 C31        83.4363   66.1444   39.8449 Y2         2 LUT      0.025142
    171 C32        82.2158   65.5213   40.0345 Y3         2 LUT     -0.212209
    172 C33        81.3303   65.5574   41.1884 Y4         2 LUT      0.240937
    173 C34        80.1912   64.7832   41.0559 Y5         2 LUT     -0.218862
    174 C35        79.0839   64.6495   42.0193 Y6         2 LUT     -0.023547
    175 C36        90.4745   66.0026   35.8968 Y7         2 LUT     -0.393485
    176 C37        89.3335   64.0266   36.9805 Y7         2 LUT     -0.393485
    177 C38        86.6706   66.9526   33.7497 Y9         2 LUT     -0.387526
    178 C39        86.0978   67.6455   39.0181 W1         2 LUT     -0.322618
    179 C40        81.7425   66.1198   42.4769 W2         2 LUT     -0.358472
    180 H403       81.3264   65.5505   43.2998 R7         2 LUT      0.097720
    181 H402       82.8633   66.1987   42.6146 R7         2 LUT      0.097720
    182 H401       81.3966   67.1252   42.6055 R7         2 LUT      0.097720
    183 H393       85.4016   68.4366   39.2199 R4         2 LUT      0.082505
    184 H392       86.3255   67.2868   40.0277 R4         2 LUT      0.082505
    185 H391       86.8963   68.1388   38.6084 R4         2 LUT      0.082505
    186 H383       86.1896   67.4697   34.6098 R1         2 LUT      0.104030
    187 H382       87.0461   67.8233   33.1184 R1         2 LUT      0.104030
    188 H381       85.9039   66.4720   33.1284 R1         2 LUT      0.104030
    189 H373       90.3789   63.8681   37.3289 T4         2 LUT      0.089537
    190 H372       88.7788   64.4592   37.8430 T4         2 LUT      0.089537
    191 H371       88.8322   63.0492   36.8701 T4         2 LUT      0.089537
    192 H363       90.5610   66.5435   36.8774 T4         2 LUT      0.089537
    193 H362       91.4376   65.3924   35.8312 T4         2 LUT      0.089537
    194 H361       90.4219   66.6757   35.0466 T4         2 LUT      0.089537
    195 H222       90.8431   63.7772   34.7419 U2         2 LUT      0.127376
    196 H221       89.1529   63.2483   34.4145 U2         2 LUT      0.127376
    197 H203       75.7827   61.8309   40.9456 R7         2 LUT      0.087068
    198 H202       74.1569   62.5827   41.3018 R7         2 LUT      0.087068
    199 H201       75.5297   63.4814   40.3954 R7         2 LUT      0.087068
    200 H193       71.6451   59.9863   45.2342 R4         2 LUT      0.089716
    201 H192       70.1863   60.8409   45.2681 R4         2 LUT      0.089716
    202 H191       71.3949   61.0940   43.9370 R4         2 LUT      0.089716
    203 H183       67.9038   63.2954   46.9304 R1         2 LUT      0.094572
    204 H182       67.3071   64.6657   47.9676 R1         2 LUT      0.094572
    205 H181       69.0906   64.4465   47.3491 R1         2 LUT      0.094572
    206 H173       71.9635   62.5109   50.7715 T4         2 LUT      0.093752
    207 H172       71.8769   60.9568   51.5156 T4         2 LUT      0.093752
    208 H171       72.2637   61.2502   49.8175 T4         2 LUT      0.093752
    209 H163       70.1751   59.5239   49.3932 T4         2 LUT      0.093752
    210 H162       70.2507   59.4343   51.0870 T4         2 LUT      0.093752
    211 H161       68.8347   59.8787   50.2785 T4         2 LUT      0.093752
    212 HO3        66.9494   62.7416   53.0682 Q1         2 LUT      0.300121
    213 H8         71.5364   63.5956   47.3098 U7         2 LUT      0.080784
    214 H7         70.2061   60.8183   47.4873 U6         2 LUT      0.042190
    215 H42        66.9256   63.8616   49.9087 U5         2 LUT      0.145166
    216 H41        68.3634   64.6436   50.5474 U5         2 LUT      0.145166
    217 H35        79.0815   65.1915   43.0411 T3         2 LUT      0.077919
    218 H34        80.0740   64.2054   40.0827 T2         2 LUT      0.073626
    219 H32        81.9147   65.0633   39.1171 T1         2 LUT      0.092510
    220 H31        83.8786   66.7742   40.5951 U9         2 LUT      0.070048
    221 H30        83.9819   65.2052   37.9370 U8         2 LUT      0.085442
    222 H3         67.4576   61.6875   51.1021 U3         2 LUT     -0.031596
    223 H28        85.4857   65.1882   36.6876 U7         2 LUT      0.084728
    224 H27        88.0034   66.9296   37.2933 U6         2 LUT      0.087291
    225 H26        87.2947   64.6511   35.4490 Q6         2 LUT      0.075325
    226 H24        88.7643   66.3433   32.1695 Q5         2 LUT      0.094482
    227 H23        90.8217   65.4425   33.2834 U3         2 LUT     -0.024869
    228 H22        69.5564   61.5585   52.4480 U2         2 LUT      0.127376
    229 H21        69.8895   63.1057   51.8044 U2         2 LUT      0.127376
    230 H15        77.8590   63.6808   40.7799 T3         2 LUT      0.093200
    231 H14        76.9793   64.6126   43.6514 T2         2 LUT      0.068865
    232 H12        75.0480   64.0898   44.4425 T1         2 LUT      0.095507
    233 H11        73.2482   61.9187   43.2719 U9         2 LUT      0.068930
    234 H10        73.3238   63.6807   45.8086 U8         2 LUT      0.083911
    235 H1         90.3458   64.0914   31.5154 Q1         2 LUT      0.297311
@<TRIPOS>BOND
    1     6     1 1
    2     7     2 1
    3     8     3 1
    4     9     4 1
    5    11     4 1
    6    12     6 1
    7    13     9 1
    8    16     9 1
    9    25     5 1
   10    25    16 1
   11    26    10 1
   12    26    17 1
   13    27    18 1
   14    28    14 1
   15    28    19 1
   16    29    12 1
   17    30    13 1
   18    31    24 1
   19    32     1 1
   20    32    25 1
   21    33    21 1
   22    33    26 1
   23    34    22 1
   24    34    27 1
   25    35    23 1
   26    35    28 1
   27    36    12 1
   28    36    24 1
   29    37    13 1
   30    37    15 1
   31    38    31 1
   32    39    20 1
   33    39    32 1
   34    40     2 1
   35    40    33 1
   36    41     3 1
   37    41    34 1
   38    42     4 1
   39    42    35 1
   40    43    38 1
   41    44     5 1
   42    44    17 1
   43    44    39 1
   44    45    10 1
   45    45    18 1
   46    45    40 1
   47    46    19 1
   48    46    41 1
   49    47    14 1
   50    47    16 1
   51    47    42 1
   52    48    38 1
   53    49    48 1
   54    50    49 1
   55    51    50 1
   56    52    51 1
   57    53    51 1
   58    54    53 1
   59    55    54 1
   60    56    55 1
   61    57    56 1
   62    58    56 1
   63    59    58 1
   64    60    59 1
   65    61    60 1
   66    62    61 1
   67    63    61 1
   68    64    27 1
   69    64    46 1
   70    65     5 1
   71    65    10 1
   72    65    64 1
   73    65    14 1
   74    66    23 1
   75    67    23 1
   76    68    23 1
   77    69    22 1
   78    70    22 1
   79    71    22 1
   80    72    21 1
   81    73    21 1
   82    74    21 1
   83    75    20 1
   84    76    20 1
   85    77    20 1
   86    78    15 1
   87    79    15 1
   88    80    15 1
   89    81     8 1
   90    82     8 1
   91    83     8 1
   92    84     7 1
   93    85     7 1
   94    86     6 1
   95    87     6 1
   96    88     3 1
   97    89     3 1
   98    90     1 1
   99    91     1 1
  100    92    63 1
  101    93    63 1
  102    94    63 1
  103    95    62 1
  104    96    62 1
  105    97    62 1
  106    98    60 1
  107    99    60 1
  108   100    59 1
  109   101    59 1
  110   102    58 1
  111   103    58 1
  112   104    57 1
  113   105    57 1
  114   106    57 1
  115   107    55 1
  116   108    55 1
  117   109    54 1
  118   110    54 1
  119   111    53 1
  120   112    53 1
  121   113    19 1
  122   114    18 1
  123   115    17 1
  124   116     9 1
  125   117     2 1
  126   118    52 1
  127   119    52 1
  128   120    52 1
  129   121    51 1
  130   122    50 1
  131   123    50 1
  132   124    49 1
  133   125    49 1
  134   126    48 1
  135   127    48 1
  136   128    43 1
  137   129    43 1
  138   130    43 1
  139   131    39 1
  140   132    32 1
  141   133    31 1
  142   134    61 1
  143   135    56 1
  144   136    24 1
  145   137    24 1
  146   139   138 1
  147   140   139 1
  148   141   140 1
  149   142   140 1
  150   143   142 1
  151   144   138 1
  152   144   143 1
  153   145   144 1
  154   146   145 1
  155   147   146 1
  156   148   147 1
  157   149   148 1
  158   150   149 1
  159   151   150 1
  160   152   151 1
  161   153   152 1
  162   154   138 1
  163   155   138 1
  164   156   143 1
  165   157   147 1
  166   158   151 1
  167   160   159 1
  168   161   160 1
  169   162   161 1
  170   163   161 1
  171   164   163 1
  172   165   159 1
  173   165   164 1
  174   166   165 1
  175   167   166 1
  176   168   167 1
  177   169   168 1
  178   170   169 1
  179   171   170 1
  180   172   171 1
  181   173   172 1
  182   174   153 1
  183   174   173 1
  184   175   159 1
  185   176   159 1
  186   177   164 1
  187   178   168 1
  188   179   172 1
  189   180   179 1
  190   181   179 1
  191   182   179 1
  192   183   178 1
  193   184   178 1
  194   185   178 1
  195   186   177 1
  196   187   177 1
  197   188   177 1
  198   189   176 1
  199   190   176 1
  200   191   176 1
  201   192   175 1
  202   193   175 1
  203   194   175 1
  204   195   160 1
  205   196   160 1
  206   197   158 1
  207   198   158 1
  208   199   158 1
  209   200   157 1
  210   201   157 1
  211   202   157 1
  212   203   156 1
  213   204   156 1
  214   205   156 1
  215   206   155 1
  216   207   155 1
  217   208   155 1
  218   209   154 1
  219   210   154 1
  220   211   154 1
  221   212   141 1
  222   213   146 1
  223   214   145 1
  224   215   142 1
  225   216   142 1
  226   217   174 1
  227   218   173 1
  228   219   171 1
  229   220   170 1
  230   221   169 1
  231   222   140 1
  232   223   167 1
  233   224   166 1
  234   225   165 1
  235   226   163 1
  236   227   161 1
  237   228   139 1
  238   229   139 1
  239   230   153 1
  240   231   152 1
  241   232   150 1
  242   233   149 1
  243   234   148 1
  244   235   162 1
  245   65    153 1
  246   65    174 1
@<TRIPOS>SUBSTRUCTURE
      1 CLA               1 ****               0 ****  **** 
      2 LUT             138 ****               0 ****  **** 
