@<TRIPOS>MOLECULE
Cpptraj generated mol2 file.
  235   246     2     0     0
SMALL
USER_CHARGES


@<TRIPOS>ATOM
      1 CAA        78.4189   57.7645   34.6688 a2         1 CLA     -0.055900
      2 CAB        78.2319   61.1589   43.7157 c8         1 CLA     -0.148500
      3 CAC        71.3831   56.8749   42.9652 a2         1 CLA     -0.012600
      4 CAD        74.6790   54.8613   35.7234 ck         1 CLA      0.398800
      5 NA         77.2704   58.2107   37.9757 ns         1 CLA     -0.225500
      6 CBA        79.6639   57.6570   33.7276 a2         1 CLA     -0.135000
      7 CBB        79.0296   62.1737   44.1414 c0         1 CLA     -0.395200
      8 CBC        71.5716   55.3239   43.2035 a3         1 CLA     -0.037700
      9 CBD        76.0787   55.5255   35.5136 a1         1 CLA     -0.053900
     10 NB         77.0291   59.6572   40.6409 nm         1 CLA     -0.295700
     11 OBD        74.1354   53.9671   35.0643 o2         1 CLA     -0.494600
     12 CGA        80.2323   56.2836   33.5672 c4         1 CLA      0.827000
     13 CGD        77.0819   54.3895   35.5018 c4         1 CLA      0.655300
     14 ND         74.5767   57.0973   38.4755 nm         1 CLA     -0.291600
     15 CED        78.0054   52.5725   36.7424 a3         1 CLA      0.005400
     16 CHA        76.2513   56.5286   36.6379 cs         1 CLA     -0.123800
     17 CHB        78.9206   59.7109   39.0284 aa         1 CLA     -0.291900
     18 CHC        75.6872   59.6379   42.6297 aa         1 CLA     -0.090400
     19 CHD        72.6690   56.6506   40.0770 aa         1 CLA     -0.052000
     20 CMA        80.8483   57.8458   37.5041 a3         1 CLA     -0.230700
     21 CMB        80.4816   61.1378   41.3581 a3         1 CLA     -0.180800
     22 CMC        73.3191   58.9353   44.6206 a3         1 CLA     -0.134000
     23 CMD        71.7886   54.5681   37.7640 a3         1 CLA     -0.141100
     24 C1         81.2446   54.4615   34.9425 a2         1 CLA      0.023000
     25 C1A        77.2974   57.3316   36.9097 ac         1 CLA     -0.015100
     26 C1B        78.3086   60.0565   40.2012 cr         1 CLA      0.054700
     27 C1C        74.5444   58.8356   42.2159 cn         1 CLA     -0.005600
     28 C1D        73.3445   56.4634   38.8366 ap         1 CLA     -0.047300
     29 O1A        80.1667   55.4718   32.6135 o2         1 CLA     -0.610800
     30 O1D        77.7573   54.1221   34.4734 o2         1 CLA     -0.558200
     31 C2         82.0435   54.3712   36.2643 c8         1 CLA     -0.325100
     32 C2A        78.5954   57.3593   36.1621 a1         1 CLA      0.098600
     33 C2B        79.0017   60.7397   41.2948 cb         1 CLA      0.088500
     34 C2C        73.4554   58.4752   43.1560 cb         1 CLA      0.053700
     35 C2D        73.0327   55.5445   37.8055 cb         1 CLA      0.058900
     36 O2A        80.8959   55.9180   34.7195 o1         1 CLA     -0.437200
     37 O2D        77.2310   53.7442   36.6537 o1         1 CLA     -0.357600
     38 C3         82.6898   53.3876   36.8434 c5         1 CLA      0.031200
     39 C3A        79.4626   58.4117   36.9642 a1         1 CLA      0.166800
     40 C3B        78.0868   60.7076   42.3491 cb         1 CLA      0.035000
     41 C3C        72.5897   57.6145   42.4255 cb         1 CLA     -0.089900
     42 C3D        74.1115   55.5524   36.9170 cb         1 CLA     -0.035900
     43 C4         81.9369   52.3176   37.5998 a3         1 CLA     -0.053300
     44 C4A        78.5116   58.8254   38.0404 ac         1 CLA      0.001800
     45 C4B        76.8605   60.0104   41.8895 cn         1 CLA     -0.020900
     46 C4C        73.1060   57.4998   41.1105 cr         1 CLA     -0.044400
     47 C4D        75.0421   56.4880   37.4121 c6         1 CLA     -0.046000
     48 C5         84.1493   53.0906   36.4598 a2         1 CLA     -0.070400
     49 C6         85.1599   54.2911   36.5554 a2         1 CLA      0.043900
     50 C7         85.2521   54.8441   38.0097 a2         1 CLA     -0.150000
     51 C8         86.0422   56.1446   38.2721 a1         1 CLA      0.064200
     52 C9         87.5868   55.9910   37.8894 a3         1 CLA     -0.259300
     53 C10        85.9132   56.7785   39.7067 a2         1 CLA     -0.071900
     54 C11        84.4626   57.1715   40.0919 a2         1 CLA      0.014500
     55 C12        84.2047   57.9431   41.4092 a2         1 CLA     -0.112100
     56 C13        84.6718   57.3260   42.7427 a1         1 CLA      0.089200
     57 C14        83.8089   56.0877   43.2019 a3         1 CLA     -0.239100
     58 C15        84.7813   58.3577   43.9444 a2         1 CLA     -0.102200
     59 C16        83.5664   59.2019   44.1722 a2         1 CLA      0.023900
     60 C17        83.7855   60.1320   45.3421 a2         1 CLA     -0.105700
     61 C18        82.6059   61.0908   45.6857 a1         1 CLA      0.206800
     62 C19        81.3346   60.1788   45.8456 a3         1 CLA     -0.280100
     63 C20        82.9956   61.7992   46.9721 a3         1 CLA     -0.280100
     64 NC         74.3143   58.2654   41.0131 nx         1 CLA     -0.309200
     65 MG         75.6961   58.4509   39.4646 mg         1 CLA      0.895000
     66 HMD3       72.0021   53.6783   37.2405 dc         1 CLA      0.064300
     67 HMD2       71.3601   54.4913   38.7294 dc         1 CLA      0.064300
     68 HMD1       71.0845   55.0572   37.0718 dc         1 CLA      0.064300
     69 HMC3       74.1777   58.7284   45.2003 dc         1 CLA      0.052100
     70 HMC2       73.2059   59.9723   44.5987 dc         1 CLA      0.052100
     71 HMC1       72.3509   58.5707   45.0527 dc         1 CLA      0.052100
     72 HMB3       80.6049   62.2205   41.1098 dc         1 CLA      0.063600
     73 HMB2       81.0107   60.9023   42.3258 dc         1 CLA      0.063600
     74 HMB1       81.0034   60.5367   40.6665 dc         1 CLA      0.063600
     75 HMA3       81.5284   58.5671   38.0116 dc         1 CLA      0.058300
     76 HMA2       80.6779   57.1177   38.3411 dc         1 CLA      0.058300
     77 HMA1       81.4411   57.3444   36.7618 dc         1 CLA      0.058300
     78 HED3       77.9076   51.8612   35.9562 dc         1 CLA      0.079300
     79 HED2       79.0387   52.8549   36.6711 dc         1 CLA      0.079300
     80 HED1       77.7358   52.0522   37.7099 dc         1 CLA      0.079300
     81 HBC3       71.5824   54.7888   42.2785 dc         1 CLA      0.016300
     82 HBC2       72.4867   55.0647   43.8105 dc         1 CLA      0.016300
     83 HBC1       70.7639   55.0574   43.8224 dc         1 CLA      0.016300
     84 HBB2       79.1736   62.3483   45.2002 da         1 CLA      0.183000
     85 HBB1       79.6954   62.7013   43.4952 da         1 CLA      0.183000
     86 HBA2       79.5365   58.0324   32.6922 dc         1 CLA      0.029400
     87 HBA1       80.4684   58.2744   34.0995 dc         1 CLA      0.029400
     88 HAC2       71.1036   57.3218   43.8807 dc         1 CLA      0.029300
     89 HAC1       70.4980   56.8945   42.2641 dc         1 CLA      0.029300
     90 HAA2       77.6052   57.1518   34.2291 dc         1 CLA      0.028700
     91 HAA1       78.0171   58.7720   34.6108 dc         1 CLA      0.028700
     92 H203       82.3258   62.6084   47.1118 dc         1 CLA      0.065600
     93 H202       82.9033   61.1829   47.8876 dc         1 CLA      0.065600
     94 H201       84.0221   62.1804   47.0848 dc         1 CLA      0.065600
     95 H193       80.5525   60.8099   46.1782 dc         1 CLA      0.065600
     96 H192       81.0180   59.6161   45.0549 dc         1 CLA      0.065600
     97 H191       81.5893   59.4964   46.6140 dc         1 CLA      0.065600
     98 H172       84.0534   59.5862   46.2350 dc         1 CLA      0.027600
     99 H171       84.6782   60.7633   45.0084 dc         1 CLA      0.027600
    100 H162       83.3230   59.8263   43.2769 dc         1 CLA      0.002900
    101 H161       82.6865   58.6184   44.4214 dc         1 CLA      0.002900
    102 H152       84.8627   57.8035   44.8819 dc         1 CLA      0.029100
    103 H151       85.6619   58.9683   43.7835 dc         1 CLA      0.029100
    104 H143       82.7580   56.3441   43.2530 dc         1 CLA      0.063600
    105 H142       83.9881   55.2489   42.4964 dc         1 CLA      0.063600
    106 H141       84.0137   55.7083   44.1392 dc         1 CLA      0.063600
    107 H122       84.7899   58.9117   41.2943 dc         1 CLA      0.032500
    108 H121       83.1320   58.2668   41.4016 dc         1 CLA      0.032500
    109 H112       84.1136   57.8493   39.2717 dc         1 CLA      0.006600
    110 H111       83.7818   56.3235   40.1460 dc         1 CLA      0.006600
    111 H102       86.2272   56.0230   40.3634 dc         1 CLA      0.024100
    112 H101       86.5238   57.6486   39.7053 dc         1 CLA      0.024100
    113 HHD        71.7312   56.1266   40.2540 da         1 CLA      0.174300
    114 HHC        75.5755   59.8590   43.7381 da         1 CLA      0.136800
    115 HHB        79.9162   60.0828   38.9403 da         1 CLA      0.138300
    116 HBD        76.0305   55.8367   34.4571 dc         1 CLA      0.107700
    117 HAB        77.6323   60.6037   44.4502 da         1 CLA      0.155200
    118 H93        87.6441   55.6191   36.8332 dc         1 CLA      0.069500
    119 H92        88.1261   57.0021   37.9661 dc         1 CLA      0.069500
    120 H91        88.0307   55.2780   38.5977 dc         1 CLA      0.069500
    121 H8         85.4923   56.7914   37.5568 dc         1 CLA      0.029300
    122 H72        84.2679   55.0233   38.3392 dc         1 CLA      0.044400
    123 H71        85.8427   54.1104   38.5979 dc         1 CLA      0.044400
    124 H62        86.1060   53.8830   36.2394 dc         1 CLA      0.015600
    125 H61        84.8675   55.0822   35.8972 dc         1 CLA      0.015600
    126 H52        84.5040   52.3360   37.1463 dc         1 CLA      0.033200
    127 H51        84.1299   52.7087   35.4524 dc         1 CLA      0.033200
    128 H43        82.4980   52.3934   38.5355 dc         1 CLA      0.037000
    129 H42        80.8303   52.5472   37.7761 dc         1 CLA      0.037000
    130 H41        82.0596   51.2913   37.2275 dc         1 CLA      0.037000
    131 H3A        79.8006   59.2271   36.3173 dc         1 CLA      0.041100
    132 H2A        78.8995   56.2758   36.2220 dc         1 CLA      0.083100
    133 H2         82.0636   55.2342   36.8679 da         1 CLA      0.180900
    134 H18        82.4628   61.9083   44.9081 dc         1 CLA     -0.003900
    135 H13        85.6202   56.9432   42.6342 dc         1 CLA      0.019700
    136 H12        80.3353   53.8756   34.9641 dc         1 CLA      0.120400
    137 H11        81.9213   53.9627   34.2815 dc         1 CLA      0.120400
    138 C1         68.5271   60.7595   50.3762 Z1         2 LUT      0.509236
    139 C2         67.1399   60.4667   50.8755 Z2         2 LUT     -0.434695
    140 C3         66.2306   61.6951   51.1975 Z3         2 LUT      0.437453
    141 O3         66.2248   62.1028   52.5334 S1         2 LUT     -0.547129
    142 C4         66.7100   62.8870   50.3983 Z4         2 LUT     -0.468603
    143 C5         67.4341   62.5932   49.0958 Z5         2 LUT      0.279246
    144 C6         68.3189   61.6152   49.0944 Z6         2 LUT     -0.305473
    145 C7         68.7138   61.0230   47.7924 Z7         2 LUT      0.069402
    146 C8         69.5176   61.7032   46.9477 Z8         2 LUT     -0.191631
    147 C9         69.9227   61.4345   45.5100 Z9         2 LUT      0.196698
    148 C10        70.8510   62.2821   44.9318 Y1         2 LUT     -0.208611
    149 C11        71.4083   62.2794   43.5870 Y2         2 LUT      0.030784
    150 C12        72.6305   62.9118   43.4067 Y3         2 LUT     -0.220316
    151 C13        73.5448   62.8901   42.2935 Y4         2 LUT      0.215937
    152 C14        74.7118   63.5131   42.4440 Y5         2 LUT     -0.185793
    153 C15        75.8111   63.5304   41.6092 Y6         2 LUT     -0.057835
    154 C16        69.1970   59.3307   50.1914 Y7         2 LUT     -0.405615
    155 C17        69.2990   61.3891   51.5504 Y7         2 LUT     -0.405615
    156 C18        66.7780   63.3134   47.9263 Y9         2 LUT     -0.369639
    157 C19        69.4735   60.2394   44.7247 W1         2 LUT     -0.333362
    158 C20        73.1047   62.1326   41.1064 W2         2 LUT     -0.323439
    159 C21        86.8656   65.3608   35.6430 Z1         2 LUT      0.406104
    160 C22        87.7105   64.6820   34.5881 Z2         2 LUT     -0.404965
    161 C23        87.9236   65.5332   33.3939 Z3         2 LUT      0.391255
    162 O23        88.7414   64.8881   32.3577 S1         2 LUT     -0.528210
    163 C24        86.5371   66.0521   32.8718 W6         2 LUT     -0.258361
    164 C25        85.4067   66.1912   33.6262 Z5         2 LUT      0.133546
    165 C26        85.4014   65.6284   35.1052 W8         2 LUT     -0.147008
    166 C27        84.5439   66.5277   35.9982 Z7         2 LUT      0.023843
    167 C28        83.4640   65.9579   36.5947 Z8         2 LUT     -0.216987
    168 C29        82.8505   66.4186   37.8148 Z9         2 LUT      0.206524
    169 C30        81.8597   65.6519   38.3551 Y1         2 LUT     -0.215556
    170 C31        81.1577   65.8638   39.5917 Y2         2 LUT      0.025142
    171 C32        80.1909   64.9357   39.9301 Y3         2 LUT     -0.212209
    172 C33        79.2449   65.0043   41.0314 Y4         2 LUT      0.240937
    173 C34        78.1250   64.1669   41.0217 Y5         2 LUT     -0.218862
    174 C35        76.9795   64.1777   41.8449 Y6         2 LUT     -0.023547
    175 C36        87.5874   66.6348   36.0990 Y7         2 LUT     -0.393485
    176 C37        86.7865   64.2767   36.7496 Y7         2 LUT     -0.393485
    177 C38        84.1106   66.7390   32.9994 Y9         2 LUT     -0.387526
    178 C39        83.4194   67.6722   38.4032 W1         2 LUT     -0.322618
    179 C40        79.4303   66.1503   42.0168 W2         2 LUT     -0.358472
    180 H403       78.9454   65.9263   43.0279 R7         2 LUT      0.097720
    181 H402       80.4639   66.4964   42.1854 R7         2 LUT      0.097720
    182 H401       78.8851   67.0368   41.6622 R7         2 LUT      0.097720
    183 H393       84.4467   67.6421   38.8551 R4         2 LUT      0.082505
    184 H392       83.5747   68.4587   37.6565 R4         2 LUT      0.082505
    185 H391       82.8276   68.1355   39.2916 R4         2 LUT      0.082505
    186 H383       84.1372   66.9977   31.9323 R1         2 LUT      0.104030
    187 H382       83.4239   65.9513   33.2578 R1         2 LUT      0.104030
    188 H381       83.7303   67.6477   33.5567 R1         2 LUT      0.104030
    189 H373       86.4077   63.3087   36.3766 T4         2 LUT      0.089537
    190 H372       87.7773   64.1117   37.1100 T4         2 LUT      0.089537
    191 H371       86.2119   64.6200   37.6154 T4         2 LUT      0.089537
    192 H363       88.5043   66.5175   36.5551 T4         2 LUT      0.089537
    193 H362       87.6092   67.4238   35.3067 T4         2 LUT      0.089537
    194 H361       87.0183   67.0826   36.8847 T4         2 LUT      0.089537
    195 H222       88.6751   64.4338   34.9703 U2         2 LUT      0.127376
    196 H221       87.2225   63.7609   34.1640 U2         2 LUT      0.127376
    197 H203       72.3520   62.6791   40.5419 R7         2 LUT      0.087068
    198 H202       73.9097   61.9776   40.3812 R7         2 LUT      0.087068
    199 H201       72.7261   61.1469   41.3820 R7         2 LUT      0.087068
    200 H193       68.9570   60.5098   43.8966 R4         2 LUT      0.089716
    201 H192       70.3171   59.5827   44.6071 R4         2 LUT      0.089716
    202 H191       68.7209   59.6669   45.2198 R4         2 LUT      0.089716
    203 H183       65.8482   63.7075   48.2867 R1         2 LUT      0.094572
    204 H182       67.4623   64.1054   47.6122 R1         2 LUT      0.094572
    205 H181       66.5219   62.5922   47.1435 R1         2 LUT      0.094572
    206 H173       68.6907   62.2122   51.9183 T4         2 LUT      0.093752
    207 H172       69.4531   60.7128   52.3246 T4         2 LUT      0.093752
    208 H171       70.2461   61.8760   51.3762 T4         2 LUT      0.093752
    209 H163       68.9014   58.7874   49.2185 T4         2 LUT      0.093752
    210 H162       70.2248   59.5780   50.0736 T4         2 LUT      0.093752
    211 H161       69.0214   58.7630   51.0016 T4         2 LUT      0.093752
    212 HO3        65.8989   61.4078   53.1559 Q1         2 LUT      0.300121
    213 H8         69.7661   62.6882   47.3156 U7         2 LUT      0.080784
    214 H7         68.3567   59.9976   47.5415 U6         2 LUT      0.042190
    215 H42        65.8461   63.5894   50.3587 U5         2 LUT      0.145166
    216 H41        67.3560   63.5004   50.9992 U5         2 LUT      0.145166
    217 H35        77.1604   64.7462   42.7419 T3         2 LUT      0.077919
    218 H34        78.0617   63.3969   40.2296 T2         2 LUT      0.073626
    219 H32        79.9209   64.1692   39.1959 T1         2 LUT      0.092510
    220 H31        81.2609   66.7761   40.0718 U9         2 LUT      0.070048
    221 H30        81.6055   64.6951   37.8488 U8         2 LUT      0.085442
    222 H3         65.1900   61.4968   50.8459 U3         2 LUT     -0.031596
    223 H28        83.1177   64.9464   36.3293 U7         2 LUT      0.084728
    224 H27        84.8926   67.4259   36.3385 U6         2 LUT      0.087291
    225 H26        85.0270   64.6428   35.1908 Q6         2 LUT      0.075325
    226 H24        86.4859   66.3540   31.8808 Q5         2 LUT      0.094482
    227 H23        88.5776   66.4193   33.6648 U3         2 LUT     -0.024869
    228 H22        66.6535   60.0931   50.0222 U2         2 LUT      0.127376
    229 H21        66.9899   59.6223   51.5457 U2         2 LUT      0.127376
    230 H15        75.7557   62.8986   40.7519 T3         2 LUT      0.093200
    231 H14        75.0814   63.8194   43.4273 T2         2 LUT      0.068865
    232 H12        73.1328   63.3497   44.2173 T1         2 LUT      0.095507
    233 H11        70.9981   61.6832   42.7574 U9         2 LUT      0.068930
    234 H10        71.0744   63.0946   45.5005 U8         2 LUT      0.083911
    235 H1         88.2113   64.2924   31.8391 Q1         2 LUT      0.297311
@<TRIPOS>BOND
    1     6     1 1
    2     7     2 1
    3     8     3 1
    4     9     4 1
    5    11     4 1
    6    12     6 1
    7    13     9 1
    8    16     9 1
    9    25     5 1
   10    25    16 1
   11    26    10 1
   12    26    17 1
   13    27    18 1
   14    28    14 1
   15    28    19 1
   16    29    12 1
   17    30    13 1
   18    31    24 1
   19    32     1 1
   20    32    25 1
   21    33    21 1
   22    33    26 1
   23    34    22 1
   24    34    27 1
   25    35    23 1
   26    35    28 1
   27    36    12 1
   28    36    24 1
   29    37    13 1
   30    37    15 1
   31    38    31 1
   32    39    20 1
   33    39    32 1
   34    40     2 1
   35    40    33 1
   36    41     3 1
   37    41    34 1
   38    42     4 1
   39    42    35 1
   40    43    38 1
   41    44     5 1
   42    44    17 1
   43    44    39 1
   44    45    10 1
   45    45    18 1
   46    45    40 1
   47    46    19 1
   48    46    41 1
   49    47    14 1
   50    47    16 1
   51    47    42 1
   52    48    38 1
   53    49    48 1
   54    50    49 1
   55    51    50 1
   56    52    51 1
   57    53    51 1
   58    54    53 1
   59    55    54 1
   60    56    55 1
   61    57    56 1
   62    58    56 1
   63    59    58 1
   64    60    59 1
   65    61    60 1
   66    62    61 1
   67    63    61 1
   68    64    27 1
   69    64    46 1
   70    65     5 1
   71    65    10 1
   72    65    64 1
   73    65    14 1
   74    66    23 1
   75    67    23 1
   76    68    23 1
   77    69    22 1
   78    70    22 1
   79    71    22 1
   80    72    21 1
   81    73    21 1
   82    74    21 1
   83    75    20 1
   84    76    20 1
   85    77    20 1
   86    78    15 1
   87    79    15 1
   88    80    15 1
   89    81     8 1
   90    82     8 1
   91    83     8 1
   92    84     7 1
   93    85     7 1
   94    86     6 1
   95    87     6 1
   96    88     3 1
   97    89     3 1
   98    90     1 1
   99    91     1 1
  100    92    63 1
  101    93    63 1
  102    94    63 1
  103    95    62 1
  104    96    62 1
  105    97    62 1
  106    98    60 1
  107    99    60 1
  108   100    59 1
  109   101    59 1
  110   102    58 1
  111   103    58 1
  112   104    57 1
  113   105    57 1
  114   106    57 1
  115   107    55 1
  116   108    55 1
  117   109    54 1
  118   110    54 1
  119   111    53 1
  120   112    53 1
  121   113    19 1
  122   114    18 1
  123   115    17 1
  124   116     9 1
  125   117     2 1
  126   118    52 1
  127   119    52 1
  128   120    52 1
  129   121    51 1
  130   122    50 1
  131   123    50 1
  132   124    49 1
  133   125    49 1
  134   126    48 1
  135   127    48 1
  136   128    43 1
  137   129    43 1
  138   130    43 1
  139   131    39 1
  140   132    32 1
  141   133    31 1
  142   134    61 1
  143   135    56 1
  144   136    24 1
  145   137    24 1
  146   139   138 1
  147   140   139 1
  148   141   140 1
  149   142   140 1
  150   143   142 1
  151   144   138 1
  152   144   143 1
  153   145   144 1
  154   146   145 1
  155   147   146 1
  156   148   147 1
  157   149   148 1
  158   150   149 1
  159   151   150 1
  160   152   151 1
  161   153   152 1
  162   154   138 1
  163   155   138 1
  164   156   143 1
  165   157   147 1
  166   158   151 1
  167   160   159 1
  168   161   160 1
  169   162   161 1
  170   163   161 1
  171   164   163 1
  172   165   159 1
  173   165   164 1
  174   166   165 1
  175   167   166 1
  176   168   167 1
  177   169   168 1
  178   170   169 1
  179   171   170 1
  180   172   171 1
  181   173   172 1
  182   174   153 1
  183   174   173 1
  184   175   159 1
  185   176   159 1
  186   177   164 1
  187   178   168 1
  188   179   172 1
  189   180   179 1
  190   181   179 1
  191   182   179 1
  192   183   178 1
  193   184   178 1
  194   185   178 1
  195   186   177 1
  196   187   177 1
  197   188   177 1
  198   189   176 1
  199   190   176 1
  200   191   176 1
  201   192   175 1
  202   193   175 1
  203   194   175 1
  204   195   160 1
  205   196   160 1
  206   197   158 1
  207   198   158 1
  208   199   158 1
  209   200   157 1
  210   201   157 1
  211   202   157 1
  212   203   156 1
  213   204   156 1
  214   205   156 1
  215   206   155 1
  216   207   155 1
  217   208   155 1
  218   209   154 1
  219   210   154 1
  220   211   154 1
  221   212   141 1
  222   213   146 1
  223   214   145 1
  224   215   142 1
  225   216   142 1
  226   217   174 1
  227   218   173 1
  228   219   171 1
  229   220   170 1
  230   221   169 1
  231   222   140 1
  232   223   167 1
  233   224   166 1
  234   225   165 1
  235   226   163 1
  236   227   161 1
  237   228   139 1
  238   229   139 1
  239   230   153 1
  240   231   152 1
  241   232   150 1
  242   233   149 1
  243   234   148 1
  244   235   162 1
  245   65    153 1
  246   65    174 1
@<TRIPOS>SUBSTRUCTURE
      1 CLA               1 ****               0 ****  **** 
      2 LUT             138 ****               0 ****  **** 
