@<TRIPOS>MOLECULE
Cpptraj generated mol2 file.
  235   246     2     0     0
SMALL
USER_CHARGES


@<TRIPOS>ATOM
      1 CAA        79.3690   59.3420   34.6211 a2         1 CLA     -0.055900
      2 CAB        79.4083   62.5324   43.9045 c8         1 CLA     -0.148500
      3 CAC        72.5282   58.5054   42.9084 a2         1 CLA     -0.012600
      4 CAD        74.8530   57.2796   35.2346 ck         1 CLA      0.398800
      5 NA         78.2036   59.5190   38.0254 ns         1 CLA     -0.225500
      6 CBA        80.6712   59.3126   33.7690 a2         1 CLA     -0.135000
      7 CBB        80.3309   62.0807   44.7562 c0         1 CLA     -0.395200
      8 CBC        72.3982   57.0218   42.6091 a3         1 CLA     -0.037700
      9 CBD        76.4113   57.5543   35.1311 a1         1 CLA     -0.053900
     10 NB         78.1417   60.9819   40.6657 nm         1 CLA     -0.295700
     11 OBD        74.1484   56.8573   34.3242 o2         1 CLA     -0.494600
     12 CGA        80.9758   57.9287   33.2397 c4         1 CLA      0.827000
     13 CGD        77.1166   56.2912   34.8221 c4         1 CLA      0.655300
     14 ND         75.3906   58.7363   38.4471 nm         1 CLA     -0.291600
     15 CED        77.0275   53.9287   34.9250 a3         1 CLA      0.005400
     16 CHA        76.8369   58.2994   36.4299 cs         1 CLA     -0.123800
     17 CHB        79.9946   60.8919   39.0771 aa         1 CLA     -0.291900
     18 CHC        76.8892   60.9289   42.8182 aa         1 CLA     -0.090400
     19 CHD        73.5028   58.6695   39.8941 aa         1 CLA     -0.052000
     20 CMA        81.6101   58.6832   37.3644 a3         1 CLA     -0.230700
     21 CMB        81.5038   62.6080   41.4812 a3         1 CLA     -0.180800
     22 CMC        74.5325   60.3690   44.6206 a3         1 CLA     -0.134000
     23 CMD        71.9783   57.5494   37.3218 a3         1 CLA     -0.141100
     24 C1         81.7885   55.6856   33.7084 a2         1 CLA      0.023000
     25 C1A        78.0539   58.8143   36.8285 ac         1 CLA     -0.015100
     26 C1B        79.4276   61.3331   40.3111 cr         1 CLA      0.054700
     27 C1C        75.7527   60.3507   42.3418 cn         1 CLA     -0.005600
     28 C1D        74.0856   58.4477   38.6629 ap         1 CLA     -0.047300
     29 O1A        80.9108   57.6085   32.0602 o2         1 CLA     -0.610800
     30 O1D        78.1140   56.2616   34.1462 o2         1 CLA     -0.558200
     31 C2         82.3132   55.0382   35.0161 c8         1 CLA     -0.325100
     32 C2A        79.3993   58.6990   36.0773 a1         1 CLA      0.098600
     33 C2B        80.0849   62.0855   41.4053 cb         1 CLA      0.088500
     34 C2C        74.6247   60.0181   43.1740 cb         1 CLA      0.053700
     35 C2D        73.4494   57.8945   37.4920 cb         1 CLA      0.058900
     36 O2A        81.4100   57.0590   34.1770 o1         1 CLA     -0.437200
     37 O2D        76.5119   55.1534   35.4427 o1         1 CLA     -0.357600
     38 C3         83.3180   54.1401   35.1366 c5         1 CLA      0.031200
     39 C3A        80.3615   59.4699   37.0037 a1         1 CLA      0.166800
     40 C3B        79.2550   62.0220   42.5197 cb         1 CLA      0.035000
     41 C3C        73.7188   59.2934   42.3560 cb         1 CLA     -0.089900
     42 C3D        74.4939   57.7197   36.5780 cb         1 CLA     -0.035900
     43 C4         83.0678   52.6943   35.3242 a3         1 CLA     -0.053300
     44 C4A        79.4727   59.9787   38.1029 ac         1 CLA      0.001800
     45 C4B        78.0101   61.2997   42.0234 cn         1 CLA     -0.020900
     46 C4C        74.2218   59.2888   41.0118 cr         1 CLA     -0.044400
     47 C4D        75.6815   58.2842   37.2440 c6         1 CLA     -0.046000
     48 C5         84.7880   54.5835   35.1705 a2         1 CLA     -0.070400
     49 C6         85.2252   55.7459   36.0108 a2         1 CLA      0.043900
     50 C7         85.1576   55.4651   37.5041 a2         1 CLA     -0.150000
     51 C8         85.6314   56.7107   38.3135 a1         1 CLA      0.064200
     52 C9         87.2219   56.9759   38.1572 a3         1 CLA     -0.259300
     53 C10        85.2585   56.6132   39.8617 a2         1 CLA     -0.071900
     54 C11        83.8588   57.0206   40.2291 a2         1 CLA      0.014500
     55 C12        83.8291   57.2388   41.8246 a2         1 CLA     -0.112100
     56 C13        82.3397   57.4113   42.3153 a1         1 CLA      0.089200
     57 C14        81.6982   58.7826   41.8356 a3         1 CLA     -0.239100
     58 C15        82.1347   57.2614   43.7810 a2         1 CLA     -0.102200
     59 C16        83.0411   58.0298   44.7497 a2         1 CLA      0.023900
     60 C17        82.8276   57.5393   46.2075 a2         1 CLA     -0.105700
     61 C18        83.6244   58.2197   47.3005 a1         1 CLA      0.206800
     62 C19        83.2224   57.6467   48.7117 a3         1 CLA     -0.280100
     63 C20        85.2279   58.0532   47.0813 a3         1 CLA     -0.280100
     64 NC         75.4672   59.8749   41.0453 nx         1 CLA     -0.309200
     65 MG         76.7357   59.9152   39.5024 mg         1 CLA      0.895000
     66 HMD3       71.3372   58.3198   36.9357 dc         1 CLA      0.064300
     67 HMD2       71.8120   56.6624   36.6867 dc         1 CLA      0.064300
     68 HMD1       71.6273   57.2866   38.3273 dc         1 CLA      0.064300
     69 HMC3       74.8297   61.4133   44.5868 dc         1 CLA      0.052100
     70 HMC2       73.5224   60.3152   45.0073 dc         1 CLA      0.052100
     71 HMC1       75.2936   59.7288   45.1294 dc         1 CLA      0.052100
     72 HMB3       82.2241   61.9743   42.0611 dc         1 CLA      0.063600
     73 HMB2       81.8720   62.7895   40.4941 dc         1 CLA      0.063600
     74 HMB1       81.4003   63.6640   41.9220 dc         1 CLA      0.063600
     75 HMA3       82.0458   59.2435   38.1888 dc         1 CLA      0.058300
     76 HMA2       81.3986   57.6606   37.7160 dc         1 CLA      0.058300
     77 HMA1       82.2806   58.5415   36.4477 dc         1 CLA      0.058300
     78 HED3       77.9300   53.7573   35.4942 dc         1 CLA      0.079300
     79 HED2       76.3220   53.1477   34.9227 dc         1 CLA      0.079300
     80 HED1       77.3733   53.9770   33.8852 dc         1 CLA      0.079300
     81 HBC3       73.1727   56.5584   43.1570 dc         1 CLA      0.016300
     82 HBC2       71.4193   56.6302   42.9960 dc         1 CLA      0.016300
     83 HBC1       72.3752   56.8288   41.5265 dc         1 CLA      0.016300
     84 HBB2       80.3291   62.4185   45.8063 da         1 CLA      0.183000
     85 HBB1       81.1354   61.3792   44.3913 da         1 CLA      0.183000
     86 HBA2       80.4516   59.9125   32.9088 dc         1 CLA      0.029400
     87 HBA1       81.4462   59.7580   34.3584 dc         1 CLA      0.029400
     88 HAC2       72.3902   58.6400   43.9417 dc         1 CLA      0.029300
     89 HAC1       71.6032   58.9563   42.4422 dc         1 CLA      0.029300
     90 HAA2       78.6874   58.8263   33.9422 dc         1 CLA      0.028700
     91 HAA1       79.0119   60.3299   34.8060 dc         1 CLA      0.028700
     92 H203       85.5970   58.4833   46.1783 dc         1 CLA      0.065600
     93 H202       85.7223   58.7945   47.8158 dc         1 CLA      0.065600
     94 H201       85.3985   57.0158   47.1925 dc         1 CLA      0.065600
     95 H193       83.8419   58.0021   49.4867 dc         1 CLA      0.065600
     96 H192       82.2427   57.9279   48.9459 dc         1 CLA      0.065600
     97 H191       83.3356   56.5343   48.8220 dc         1 CLA      0.065600
     98 H172       81.7761   57.5805   46.5878 dc         1 CLA      0.027600
     99 H171       83.1073   56.4165   46.2381 dc         1 CLA      0.027600
    100 H162       84.1117   57.8306   44.5723 dc         1 CLA      0.002900
    101 H161       82.6946   59.0601   44.7392 dc         1 CLA      0.002900
    102 H152       81.0701   57.5562   43.9940 dc         1 CLA      0.029100
    103 H151       82.1362   56.2408   43.9777 dc         1 CLA      0.029100
    104 H143       80.5984   58.8126   42.1716 dc         1 CLA      0.063600
    105 H142       82.2780   59.5527   42.2824 dc         1 CLA      0.063600
    106 H141       81.5714   58.7680   40.7637 dc         1 CLA      0.063600
    107 H122       84.3349   56.4409   42.3747 dc         1 CLA      0.032500
    108 H121       84.4338   58.1032   42.0756 dc         1 CLA      0.032500
    109 H112       83.6637   57.9722   39.8187 dc         1 CLA      0.006600
    110 H111       83.1307   56.2294   39.8798 dc         1 CLA      0.006600
    111 H102       85.4452   55.5448   40.1215 dc         1 CLA      0.024100
    112 H101       85.9248   57.1957   40.4369 dc         1 CLA      0.024100
    113 HHD        72.4509   58.2955   40.0017 da         1 CLA      0.174300
    114 HHC        77.0942   61.1081   43.8855 da         1 CLA      0.136800
    115 HHB        81.0574   61.1797   38.9550 da         1 CLA      0.138300
    116 HBD        76.5863   58.1645   34.2516 dc         1 CLA      0.107700
    117 HAB        78.6581   63.2306   44.2416 da         1 CLA      0.155200
    118 H93        87.8257   56.1111   38.5657 dc         1 CLA      0.069500
    119 H92        87.5002   57.0827   37.0864 dc         1 CLA      0.069500
    120 H91        87.4906   57.8815   38.5971 dc         1 CLA      0.069500
    121 H8         85.0510   57.5009   37.9030 dc         1 CLA      0.029300
    122 H72        84.1341   55.2504   37.8163 dc         1 CLA      0.044400
    123 H71        85.8082   54.5888   37.7125 dc         1 CLA      0.044400
    124 H62        86.2667   55.8911   35.7371 dc         1 CLA      0.015600
    125 H61        84.6941   56.6317   35.7158 dc         1 CLA      0.015600
    126 H52        85.4559   53.6861   35.3654 dc         1 CLA      0.033200
    127 H51        85.1541   54.8468   34.1559 dc         1 CLA      0.033200
    128 H43        83.6773   52.2758   36.1396 dc         1 CLA      0.037000
    129 H42        82.0275   52.4042   35.5312 dc         1 CLA      0.037000
    130 H41        83.4216   52.1905   34.4556 dc         1 CLA      0.037000
    131 H3A        80.6479   60.4615   36.5259 dc         1 CLA      0.041100
    132 H2A        79.7072   57.6752   35.8565 dc         1 CLA      0.083100
    133 H2         81.9217   55.4135   35.9811 da         1 CLA      0.180900
    134 H18        83.3106   59.1824   47.2461 dc         1 CLA     -0.003900
    135 H13        81.7584   56.6460   41.8655 dc         1 CLA      0.019700
    136 H12        80.8981   55.2093   33.2885 dc         1 CLA      0.120400
    137 H11        82.5734   55.7601   33.0003 dc         1 CLA      0.120400
    138 C1         68.7963   61.5593   50.1033 Z1         2 LUT      0.509236
    139 C2         68.2321   62.3033   51.3205 Z2         2 LUT     -0.434695
    140 C3         66.7937   62.7099   51.1754 Z3         2 LUT      0.437453
    141 O3         66.4180   63.3241   52.4137 S1         2 LUT     -0.547129
    142 C4         66.6542   63.7124   50.0659 Z4         2 LUT     -0.468603
    143 C5         67.4397   63.3022   48.7419 Z5         2 LUT      0.279246
    144 C6         68.3491   62.3061   48.7200 Z6         2 LUT     -0.305473
    145 C7         69.2024   61.9666   47.5592 Z7         2 LUT      0.069402
    146 C8         69.9619   62.7856   46.7644 Z8         2 LUT     -0.191631
    147 C9         70.7907   62.4282   45.5593 Z9         2 LUT      0.196698
    148 C10        71.5507   63.3264   44.9425 Y1         2 LUT     -0.208611
    149 C11        72.2811   63.1500   43.7294 Y2         2 LUT      0.030784
    150 C12        73.3398   63.9048   43.3539 Y3         2 LUT     -0.220316
    151 C13        74.3140   63.6376   42.2941 Y4         2 LUT      0.215937
    152 C14        75.4708   64.3988   42.3064 Y5         2 LUT     -0.185793
    153 C15        76.6217   64.1529   41.4070 Y6         2 LUT     -0.057835
    154 C16        68.1310   60.1836   49.9813 Y7         2 LUT     -0.405615
    155 C17        70.3288   61.2170   50.1605 Y7         2 LUT     -0.405615
    156 C18        67.0116   64.2001   47.6217 Y9         2 LUT     -0.369639
    157 C19        70.6262   61.0031   45.1816 W1         2 LUT     -0.333362
    158 C20        73.7861   62.9837   41.0723 W2         2 LUT     -0.323439
    159 C21        87.6473   66.0172   35.0430 Z1         2 LUT      0.406104
    160 C22        88.5248   65.7134   33.8294 Z2         2 LUT     -0.404965
    161 C23        88.6240   66.7734   32.7522 Z3         2 LUT      0.391255
    162 O23        89.0965   66.2727   31.4891 S1         2 LUT     -0.528210
    163 C24        87.4077   67.6303   32.5616 W6         2 LUT     -0.258361
    164 C25        86.3953   67.6197   33.4039 Z5         2 LUT      0.133546
    165 C26        86.2649   66.7284   34.6976 W8         2 LUT     -0.147008
    166 C27        85.4100   67.4618   35.7376 Z7         2 LUT      0.023843
    167 C28        84.3501   67.0023   36.3314 Z8         2 LUT     -0.216987
    168 C29        83.8195   67.3174   37.6398 Z9         2 LUT      0.206524
    169 C30        82.7613   66.5942   38.2109 Y1         2 LUT     -0.215556
    170 C31        81.8691   66.7782   39.3179 Y2         2 LUT      0.025142
    171 C32        80.8936   65.8307   39.7130 Y3         2 LUT     -0.212209
    172 C33        79.9638   65.8780   40.7802 Y4         2 LUT      0.240937
    173 C34        78.8772   65.0151   40.7283 Y5         2 LUT     -0.218862
    174 C35        77.7492   64.9836   41.5637 Y6         2 LUT     -0.023547
    175 C36        88.5207   66.9108   35.9533 Y7         2 LUT     -0.393485
    176 C37        87.5575   64.7276   35.8242 Y7         2 LUT     -0.393485
    177 C38        85.1267   68.3943   32.9926 Y9         2 LUT     -0.387526
    178 C39        84.1163   68.7462   38.1906 W1         2 LUT     -0.322618
    179 C40        80.1420   66.9332   41.8547 W2         2 LUT     -0.358472
    180 H403       79.7699   67.9363   41.4556 R7         2 LUT      0.097720
    181 H402       79.6894   66.6793   42.8493 R7         2 LUT      0.097720
    182 H401       81.1225   67.0492   42.1463 R7         2 LUT      0.097720
    183 H393       83.6516   68.9737   39.1814 R4         2 LUT      0.082505
    184 H392       85.1308   68.9694   38.1442 R4         2 LUT      0.082505
    185 H391       83.7394   69.4603   37.5536 R4         2 LUT      0.082505
    186 H383       85.3293   69.0667   32.2574 R1         2 LUT      0.104030
    187 H382       84.3508   67.6564   32.5304 R1         2 LUT      0.104030
    188 H381       84.7097   68.9738   33.7999 R1         2 LUT      0.104030
    189 H373       87.1203   64.8910   36.8226 T4         2 LUT      0.089537
    190 H372       86.9549   63.9575   35.4146 T4         2 LUT      0.089537
    191 H371       88.5323   64.2361   35.9173 T4         2 LUT      0.089537
    192 H363       87.9947   67.1292   36.8570 T4         2 LUT      0.089537
    193 H362       89.4026   66.3650   36.2482 T4         2 LUT      0.089537
    194 H361       88.9413   67.7457   35.4385 T4         2 LUT      0.089537
    195 H222       89.4959   65.3194   34.1393 U2         2 LUT      0.127376
    196 H221       88.1604   64.7454   33.3348 U2         2 LUT      0.127376
    197 H203       74.0955   63.4951   40.1642 R7         2 LUT      0.087068
    198 H202       73.8413   61.9726   41.0727 R7         2 LUT      0.087068
    199 H201       72.7000   63.0944   41.0581 R7         2 LUT      0.087068
    200 H193       69.5669   60.6709   45.2653 R4         2 LUT      0.089716
    201 H192       70.9208   60.8319   44.1806 R4         2 LUT      0.089716
    202 H191       71.3389   60.4250   45.8278 R4         2 LUT      0.089716
    203 H183       65.9707   64.5092   47.7259 R1         2 LUT      0.094572
    204 H182       67.5825   65.0260   47.5880 R1         2 LUT      0.094572
    205 H181       67.1651   63.6038   46.6974 R1         2 LUT      0.094572
    206 H173       70.6065   61.2176   51.2702 T4         2 LUT      0.093752
    207 H172       70.7140   60.3189   49.6606 T4         2 LUT      0.093752
    208 H171       70.8342   62.0977   49.9327 T4         2 LUT      0.093752
    209 H163       67.0889   60.3410   49.7684 T4         2 LUT      0.093752
    210 H162       68.6657   59.6655   49.1797 T4         2 LUT      0.093752
    211 H161       68.3377   59.5324   50.8101 T4         2 LUT      0.093752
    212 HO3        65.8168   62.7463   52.9305 Q1         2 LUT      0.300121
    213 H8         69.9710   63.8900   46.9183 U7         2 LUT      0.080784
    214 H7         69.4868   60.9217   47.4319 U6         2 LUT      0.042190
    215 H42        65.5544   63.7547   49.8194 U5         2 LUT      0.145166
    216 H41        67.1012   64.6539   50.3473 U5         2 LUT      0.145166
    217 H35        77.7164   65.7983   42.3014 T3         2 LUT      0.077919
    218 H34        78.8551   64.2861   39.9307 T2         2 LUT      0.073626
    219 H32        80.6334   65.0040   39.0563 T1         2 LUT      0.092510
    220 H31        82.0012   67.7319   39.8582 U9         2 LUT      0.070048
    221 H30        82.5489   65.6374   37.5971 U8         2 LUT      0.085442
    222 H3         66.1114   61.8581   50.8089 U3         2 LUT     -0.031596
    223 H28        83.9561   66.1401   35.9217 U7         2 LUT      0.084728
    224 H27        86.0157   68.2348   36.2541 U6         2 LUT      0.087291
    225 H26        85.6715   65.8884   34.2067 Q6         2 LUT      0.075325
    226 H24        87.4570   68.3668   31.6616 Q5         2 LUT      0.094482
    227 H23        89.3938   67.4549   33.2385 U3         2 LUT     -0.024869
    228 H22        68.3363   61.6152   52.2483 U2         2 LUT      0.127376
    229 H21        68.8503   63.2285   51.4401 U2         2 LUT      0.127376
    230 H15        76.5850   63.3895   40.6512 T3         2 LUT      0.093200
    231 H14        75.5814   65.2278   43.0015 T2         2 LUT      0.068865
    232 H12        73.6126   64.6730   44.0582 T1         2 LUT      0.095507
    233 H11        72.1581   62.2506   43.1684 U9         2 LUT      0.068930
    234 H10        71.4388   64.3394   45.3901 U8         2 LUT      0.083911
    235 H1         88.3942   65.8688   30.9853 Q1         2 LUT      0.297311
@<TRIPOS>BOND
    1     6     1 1
    2     7     2 1
    3     8     3 1
    4     9     4 1
    5    11     4 1
    6    12     6 1
    7    13     9 1
    8    16     9 1
    9    25     5 1
   10    25    16 1
   11    26    10 1
   12    26    17 1
   13    27    18 1
   14    28    14 1
   15    28    19 1
   16    29    12 1
   17    30    13 1
   18    31    24 1
   19    32     1 1
   20    32    25 1
   21    33    21 1
   22    33    26 1
   23    34    22 1
   24    34    27 1
   25    35    23 1
   26    35    28 1
   27    36    12 1
   28    36    24 1
   29    37    13 1
   30    37    15 1
   31    38    31 1
   32    39    20 1
   33    39    32 1
   34    40     2 1
   35    40    33 1
   36    41     3 1
   37    41    34 1
   38    42     4 1
   39    42    35 1
   40    43    38 1
   41    44     5 1
   42    44    17 1
   43    44    39 1
   44    45    10 1
   45    45    18 1
   46    45    40 1
   47    46    19 1
   48    46    41 1
   49    47    14 1
   50    47    16 1
   51    47    42 1
   52    48    38 1
   53    49    48 1
   54    50    49 1
   55    51    50 1
   56    52    51 1
   57    53    51 1
   58    54    53 1
   59    55    54 1
   60    56    55 1
   61    57    56 1
   62    58    56 1
   63    59    58 1
   64    60    59 1
   65    61    60 1
   66    62    61 1
   67    63    61 1
   68    64    27 1
   69    64    46 1
   70    65     5 1
   71    65    10 1
   72    65    64 1
   73    65    14 1
   74    66    23 1
   75    67    23 1
   76    68    23 1
   77    69    22 1
   78    70    22 1
   79    71    22 1
   80    72    21 1
   81    73    21 1
   82    74    21 1
   83    75    20 1
   84    76    20 1
   85    77    20 1
   86    78    15 1
   87    79    15 1
   88    80    15 1
   89    81     8 1
   90    82     8 1
   91    83     8 1
   92    84     7 1
   93    85     7 1
   94    86     6 1
   95    87     6 1
   96    88     3 1
   97    89     3 1
   98    90     1 1
   99    91     1 1
  100    92    63 1
  101    93    63 1
  102    94    63 1
  103    95    62 1
  104    96    62 1
  105    97    62 1
  106    98    60 1
  107    99    60 1
  108   100    59 1
  109   101    59 1
  110   102    58 1
  111   103    58 1
  112   104    57 1
  113   105    57 1
  114   106    57 1
  115   107    55 1
  116   108    55 1
  117   109    54 1
  118   110    54 1
  119   111    53 1
  120   112    53 1
  121   113    19 1
  122   114    18 1
  123   115    17 1
  124   116     9 1
  125   117     2 1
  126   118    52 1
  127   119    52 1
  128   120    52 1
  129   121    51 1
  130   122    50 1
  131   123    50 1
  132   124    49 1
  133   125    49 1
  134   126    48 1
  135   127    48 1
  136   128    43 1
  137   129    43 1
  138   130    43 1
  139   131    39 1
  140   132    32 1
  141   133    31 1
  142   134    61 1
  143   135    56 1
  144   136    24 1
  145   137    24 1
  146   139   138 1
  147   140   139 1
  148   141   140 1
  149   142   140 1
  150   143   142 1
  151   144   138 1
  152   144   143 1
  153   145   144 1
  154   146   145 1
  155   147   146 1
  156   148   147 1
  157   149   148 1
  158   150   149 1
  159   151   150 1
  160   152   151 1
  161   153   152 1
  162   154   138 1
  163   155   138 1
  164   156   143 1
  165   157   147 1
  166   158   151 1
  167   160   159 1
  168   161   160 1
  169   162   161 1
  170   163   161 1
  171   164   163 1
  172   165   159 1
  173   165   164 1
  174   166   165 1
  175   167   166 1
  176   168   167 1
  177   169   168 1
  178   170   169 1
  179   171   170 1
  180   172   171 1
  181   173   172 1
  182   174   153 1
  183   174   173 1
  184   175   159 1
  185   176   159 1
  186   177   164 1
  187   178   168 1
  188   179   172 1
  189   180   179 1
  190   181   179 1
  191   182   179 1
  192   183   178 1
  193   184   178 1
  194   185   178 1
  195   186   177 1
  196   187   177 1
  197   188   177 1
  198   189   176 1
  199   190   176 1
  200   191   176 1
  201   192   175 1
  202   193   175 1
  203   194   175 1
  204   195   160 1
  205   196   160 1
  206   197   158 1
  207   198   158 1
  208   199   158 1
  209   200   157 1
  210   201   157 1
  211   202   157 1
  212   203   156 1
  213   204   156 1
  214   205   156 1
  215   206   155 1
  216   207   155 1
  217   208   155 1
  218   209   154 1
  219   210   154 1
  220   211   154 1
  221   212   141 1
  222   213   146 1
  223   214   145 1
  224   215   142 1
  225   216   142 1
  226   217   174 1
  227   218   173 1
  228   219   171 1
  229   220   170 1
  230   221   169 1
  231   222   140 1
  232   223   167 1
  233   224   166 1
  234   225   165 1
  235   226   163 1
  236   227   161 1
  237   228   139 1
  238   229   139 1
  239   230   153 1
  240   231   152 1
  241   232   150 1
  242   233   149 1
  243   234   148 1
  244   235   162 1
  245   65    153 1
  246   65    174 1
@<TRIPOS>SUBSTRUCTURE
      1 CLA               1 ****               0 ****  **** 
      2 LUT             138 ****               0 ****  **** 
