@<TRIPOS>MOLECULE
Cpptraj generated mol2 file.
  235   246     2     0     0
SMALL
USER_CHARGES


@<TRIPOS>ATOM
      1 CAA        80.5782   59.3016   33.9494 a2         1 CLA     -0.055900
      2 CAB        79.8756   62.8362   43.0958 c8         1 CLA     -0.148500
      3 CAC        73.1664   58.6472   42.1289 a2         1 CLA     -0.012600
      4 CAD        76.3218   56.2943   35.1577 ck         1 CLA      0.398800
      5 NA         79.2682   59.5644   37.3507 ns         1 CLA     -0.225500
      6 CBA        81.7813   58.9868   33.0743 a2         1 CLA     -0.135000
      7 CBB        80.7273   63.7673   43.5202 c0         1 CLA     -0.395200
      8 CBC        73.4916   57.2200   42.5434 a3         1 CLA     -0.037700
      9 CBD        77.7542   56.9627   34.8315 a1         1 CLA     -0.053900
     10 NB         79.0487   60.9177   40.0263 nm         1 CLA     -0.295700
     11 OBD        75.8761   55.3571   34.5207 o2         1 CLA     -0.494600
     12 CGA        82.2338   57.5326   32.8095 c4         1 CLA      0.827000
     13 CGD        78.9327   55.9878   34.5939 c4         1 CLA      0.655300
     14 ND         76.4276   58.6050   37.7694 nm         1 CLA     -0.291600
     15 CED        79.9815   54.0456   35.4692 a3         1 CLA      0.005400
     16 CHA        78.0612   58.0364   35.9628 cs         1 CLA     -0.123800
     17 CHB        81.0574   60.9043   38.5083 aa         1 CLA     -0.291900
     18 CHC        77.5323   61.1245   41.9085 aa         1 CLA     -0.090400
     19 CHD        74.4944   58.4496   39.2766 aa         1 CLA     -0.052000
     20 CMA        82.7831   58.8579   36.9421 a3         1 CLA     -0.230700
     21 CMB        82.3564   62.5427   40.8095 a3         1 CLA     -0.180800
     22 CMC        74.9568   60.5618   43.7723 a3         1 CLA     -0.134000
     23 CMD        73.4646   56.1169   37.1960 a3         1 CLA     -0.141100
     24 C1         83.3253   55.7010   33.8248 a2         1 CLA      0.023000
     25 C1A        79.2321   58.7666   36.2520 ac         1 CLA     -0.015100
     26 C1B        80.3468   61.2985   39.6606 cr         1 CLA      0.054700
     27 C1C        76.3949   60.4072   41.5414 cn         1 CLA     -0.005600
     28 C1D        75.1330   58.1071   38.0636 ap         1 CLA     -0.047300
     29 O1A        81.8322   56.9249   31.8268 o2         1 CLA     -0.610800
     30 O1D        79.6470   56.0378   33.6167 o2         1 CLA     -0.558200
     31 C2         84.0881   55.6130   35.1168 c8         1 CLA     -0.325100
     32 C2A        80.6038   58.8263   35.4169 a1         1 CLA      0.098600
     33 C2B        80.8708   62.1009   40.7367 cb         1 CLA      0.088500
     34 C2C        75.2002   60.1796   42.3787 cb         1 CLA      0.053700
     35 C2D        74.7607   56.9186   37.1549 cb         1 CLA      0.058900
     36 O2A        82.9902   57.1126   33.8522 o1         1 CLA     -0.437200
     37 O2D        78.9322   55.0551   35.5455 o1         1 CLA     -0.357600
     38 C3         84.9118   54.6313   35.5097 c5         1 CLA      0.031200
     39 C3A        81.5166   59.6137   36.3085 a1         1 CLA      0.166800
     40 C3B        79.8792   62.2091   41.7111 cb         1 CLA      0.035000
     41 C3C        74.4050   59.3319   41.5918 cb         1 CLA     -0.089900
     42 C3D        75.8843   56.9488   36.2863 cb         1 CLA     -0.035900
     43 C4         84.4620   53.3826   36.3749 a3         1 CLA     -0.053300
     44 C4A        80.5509   60.0471   37.4625 ac         1 CLA      0.001800
     45 C4B        78.7180   61.3768   41.2227 cn         1 CLA     -0.020900
     46 C4C        75.0097   59.2257   40.3256 cr         1 CLA     -0.044400
     47 C4D        76.8058   57.9612   36.6575 c6         1 CLA     -0.046000
     48 C5         86.3643   54.5231   35.1168 a2         1 CLA     -0.070400
     49 C6         87.2184   55.6084   35.7648 a2         1 CLA      0.043900
     50 C7         87.2660   55.5406   37.2862 a2         1 CLA     -0.150000
     51 C8         88.0803   56.7285   37.9258 a1         1 CLA      0.064200
     52 C9         89.4956   56.6499   37.6287 a3         1 CLA     -0.259300
     53 C10        87.7563   56.9288   39.3825 a2         1 CLA     -0.071900
     54 C11        88.0690   58.2191   40.0283 a2         1 CLA      0.014500
     55 C12        87.8411   58.0698   41.4967 a2         1 CLA     -0.112100
     56 C13        87.4081   59.4270   42.1544 a1         1 CLA      0.089200
     57 C14        88.5786   60.3737   42.1229 a3         1 CLA     -0.239100
     58 C15        87.0008   59.2334   43.6359 a2         1 CLA     -0.102200
     59 C16        85.5822   58.7575   43.8572 a2         1 CLA      0.023900
     60 C17        85.4134   58.0303   45.2148 a2         1 CLA     -0.105700
     61 C18        85.6120   58.8640   46.5922 a1         1 CLA      0.206800
     62 C19        84.6047   60.0369   46.7793 a3         1 CLA     -0.280100
     63 C20        85.5610   57.8370   47.7787 a3         1 CLA     -0.280100
     64 NC         76.2093   59.7801   40.3381 nx         1 CLA     -0.309200
     65 MG         77.6780   59.9011   38.8076 mg         1 CLA      0.895000
     66 HMD3       73.6849   55.0427   37.0611 dc         1 CLA      0.064300
     67 HMD2       73.1547   56.1974   38.2396 dc         1 CLA      0.064300
     68 HMD1       72.6742   56.3545   36.5199 dc         1 CLA      0.064300
     69 HMC3       75.1624   59.6731   44.3492 dc         1 CLA      0.052100
     70 HMC2       75.6214   61.3461   44.0726 dc         1 CLA      0.052100
     71 HMC1       73.8725   60.7815   43.8364 dc         1 CLA      0.052100
     72 HMB3       82.4863   63.6348   40.5242 dc         1 CLA      0.063600
     73 HMB2       82.7692   62.4214   41.7814 dc         1 CLA      0.063600
     74 HMB1       82.9940   62.0172   40.1074 dc         1 CLA      0.063600
     75 HMA3       82.3984   57.8968   37.3448 dc         1 CLA      0.058300
     76 HMA2       83.4858   58.5735   36.1555 dc         1 CLA      0.058300
     77 HMA1       83.2007   59.4727   37.7698 dc         1 CLA      0.058300
     78 HED3       80.0094   53.6370   34.5294 dc         1 CLA      0.079300
     79 HED2       81.0004   54.4821   35.6636 dc         1 CLA      0.079300
     80 HED1       79.7290   53.2731   36.0996 dc         1 CLA      0.079300
     81 HBC3       74.1747   57.3492   43.4215 dc         1 CLA      0.016300
     82 HBC2       72.5235   56.6999   42.6435 dc         1 CLA      0.016300
     83 HBC1       74.0318   56.6724   41.7240 dc         1 CLA      0.016300
     84 HBB2       80.7074   63.9872   44.5993 da         1 CLA      0.183000
     85 HBB1       81.4687   64.2347   42.8347 da         1 CLA      0.183000
     86 HBA2       81.6076   59.5224   32.1259 dc         1 CLA      0.029400
     87 HBA1       82.6873   59.3843   33.5077 dc         1 CLA      0.029400
     88 HAC2       72.6248   59.0922   42.9747 dc         1 CLA      0.029300
     89 HAC1       72.4962   58.4937   41.3695 dc         1 CLA      0.029300
     90 HAA2       79.7190   58.7623   33.5487 dc         1 CLA      0.028700
     91 HAA1       80.3324   60.3507   34.0214 dc         1 CLA      0.028700
     92 H203       84.7386   57.2316   47.6917 dc         1 CLA      0.065600
     93 H202       86.4069   57.1564   47.6411 dc         1 CLA      0.065600
     94 H201       85.5972   58.3693   48.7274 dc         1 CLA      0.065600
     95 H193       83.6660   59.4849   46.6753 dc         1 CLA      0.065600
     96 H192       84.6465   60.4874   47.7974 dc         1 CLA      0.065600
     97 H191       84.6634   60.8638   46.0678 dc         1 CLA      0.065600
     98 H172       84.3498   57.7893   45.2175 dc         1 CLA      0.027600
     99 H171       86.0850   57.1468   45.2004 dc         1 CLA      0.027600
    100 H162       84.8671   59.5935   43.8129 dc         1 CLA      0.002900
    101 H161       85.1741   58.0590   43.0501 dc         1 CLA      0.002900
    102 H152       87.6911   58.3807   43.9765 dc         1 CLA      0.029100
    103 H151       87.2202   60.0004   44.2883 dc         1 CLA      0.029100
    104 H143       88.9499   60.5335   41.1395 dc         1 CLA      0.063600
    105 H142       88.2692   61.3146   42.6593 dc         1 CLA      0.063600
    106 H141       89.3661   59.9737   42.7540 dc         1 CLA      0.063600
    107 H122       87.0355   57.3665   41.7626 dc         1 CLA      0.032500
    108 H121       88.7623   57.6874   41.9431 dc         1 CLA      0.032500
    109 H112       89.0860   58.4545   39.8007 dc         1 CLA      0.006600
    110 H111       87.4171   58.9788   39.5724 dc         1 CLA      0.006600
    111 H102       86.6513   56.9260   39.4640 dc         1 CLA      0.024100
    112 H101       88.2631   56.0561   39.8891 dc         1 CLA      0.024100
    113 HHD        73.5928   57.8974   39.5250 da         1 CLA      0.174300
    114 HHC        77.5901   61.5518   42.9071 da         1 CLA      0.136800
    115 HHB        82.0884   61.1996   38.5028 da         1 CLA      0.138300
    116 HBD        77.6186   57.5296   33.9055 dc         1 CLA      0.107700
    117 HAB        79.2213   62.4224   43.8240 da         1 CLA      0.155200
    118 H93        89.9397   55.7277   37.8789 dc         1 CLA      0.069500
    119 H92        89.7984   56.9297   36.5891 dc         1 CLA      0.069500
    120 H91        89.9985   57.4016   38.2310 dc         1 CLA      0.069500
    121 H8         87.6047   57.5471   37.3253 dc         1 CLA      0.029300
    122 H72        86.3040   55.6559   37.6326 dc         1 CLA      0.044400
    123 H71        87.7335   54.6112   37.6646 dc         1 CLA      0.044400
    124 H62        88.2746   55.4133   35.4993 dc         1 CLA      0.015600
    125 H61        86.9132   56.5617   35.4517 dc         1 CLA      0.015600
    126 H52        86.7296   53.5387   35.4325 dc         1 CLA      0.033200
    127 H51        86.4957   54.6574   34.0149 dc         1 CLA      0.033200
    128 H43        84.4949   52.3762   35.8691 dc         1 CLA      0.037000
    129 H42        85.0726   53.4440   37.3121 dc         1 CLA      0.037000
    130 H41        83.4476   53.5038   36.6965 dc         1 CLA      0.037000
    131 H3A        81.8571   60.5852   35.8909 dc         1 CLA      0.041100
    132 H2A        80.9828   57.7933   35.4427 dc         1 CLA      0.083100
    133 H2         83.9606   56.4800   35.7726 da         1 CLA      0.180900
    134 H18        86.6242   59.3178   46.5827 dc         1 CLA     -0.003900
    135 H13        86.4941   59.7806   41.6055 dc         1 CLA      0.019700
    136 H12        82.3520   55.1707   33.9302 dc         1 CLA      0.120400
    137 H11        83.8117   55.3585   32.9407 dc         1 CLA      0.120400
    138 C1         69.5164   61.8562   49.9641 Z1         2 LUT      0.509236
    139 C2         68.0283   61.7036   50.4552 Z2         2 LUT     -0.434695
    140 C3         67.2042   62.9056   50.6044 Z3         2 LUT      0.437453
    141 O3         66.7453   63.1223   51.9290 S1         2 LUT     -0.547129
    142 C4         67.6563   64.0578   49.7855 Z4         2 LUT     -0.468603
    143 C5         68.5998   63.7617   48.6468 Z5         2 LUT      0.279246
    144 C6         69.5698   62.8307   48.7389 Z6         2 LUT     -0.305473
    145 C7         70.0872   62.4096   47.4514 Z7         2 LUT      0.069402
    146 C8         71.2940   62.8548   46.9952 Z8         2 LUT     -0.191631
    147 C9         71.8791   62.6658   45.6033 Z9         2 LUT      0.196698
    148 C10        72.9881   63.4456   45.2744 Y1         2 LUT     -0.208611
    149 C11        73.6665   63.6345   44.0601 Y2         2 LUT      0.030784
    150 C12        74.8289   64.3841   43.8704 Y3         2 LUT     -0.220316
    151 C13        75.5347   64.4283   42.6261 Y4         2 LUT      0.215937
    152 C14        76.6286   65.1963   42.6186 Y5         2 LUT     -0.185793
    153 C15        77.5733   65.2772   41.5331 Y6         2 LUT     -0.057835
    154 C16        70.0342   60.5233   49.5186 Y7         2 LUT     -0.405615
    155 C17        70.2949   62.5281   51.0816 Y7         2 LUT     -0.405615
    156 C18        68.1930   64.6731   47.5319 Y9         2 LUT     -0.369639
    157 C19        71.1629   61.9080   44.5311 W1         2 LUT     -0.333362
    158 C20        74.9693   63.8020   41.3726 W2         2 LUT     -0.323439
    159 C21        88.6645   66.2248   34.9453 Z1         2 LUT      0.406104
    160 C22        89.6305   65.7956   33.7664 Z2         2 LUT     -0.404965
    161 C23        89.8864   66.9516   32.6880 Z3         2 LUT      0.391255
    162 O23        90.5866   66.4232   31.6141 S1         2 LUT     -0.528210
    163 C24        88.5520   67.6685   32.3913 W6         2 LUT     -0.258361
    164 C25        87.4005   67.6930   33.0963 Z5         2 LUT      0.133546
    165 C26        87.3050   66.8138   34.3519 W8         2 LUT     -0.147008
    166 C27        86.4437   67.3906   35.5236 Z7         2 LUT      0.023843
    167 C28        85.3120   66.8896   36.0763 Z8         2 LUT     -0.216987
    168 C29        84.6087   67.3011   37.2652 Z9         2 LUT      0.206524
    169 C30        83.6219   66.5041   37.7533 Y1         2 LUT     -0.215556
    170 C31        83.0129   66.6298   39.0221 Y2         2 LUT      0.025142
    171 C32        81.8209   65.9546   39.4008 Y3         2 LUT     -0.212209
    172 C33        81.1441   66.1778   40.6743 Y4         2 LUT      0.240937
    173 C34        79.8855   65.5722   40.7487 Y5         2 LUT     -0.218862
    174 C35        78.8899   65.6917   41.7764 Y6         2 LUT     -0.023547
    175 C36        89.4743   67.4135   35.7461 Y7         2 LUT     -0.393485
    176 C37        88.5075   65.0534   35.8925 Y7         2 LUT     -0.393485
    177 C38        86.1544   68.4941   32.7162 Y9         2 LUT     -0.387526
    178 C39        85.1065   68.5144   38.0489 W1         2 LUT     -0.322618
    179 C40        81.8058   66.9316   41.8327 W2         2 LUT     -0.358472
    180 H403       81.3221   66.7747   42.7570 R7         2 LUT      0.097720
    181 H402       82.7985   66.5661   41.9333 R7         2 LUT      0.097720
    182 H401       81.8540   68.0155   41.6590 R7         2 LUT      0.097720
    183 H393       84.3083   69.2122   38.2057 R4         2 LUT      0.082505
    184 H392       85.4647   68.2454   39.0748 R4         2 LUT      0.082505
    185 H391       85.9323   69.1028   37.7172 R4         2 LUT      0.082505
    186 H383       85.4420   67.7321   32.5478 R1         2 LUT      0.104030
    187 H382       85.7847   69.1865   33.4785 R1         2 LUT      0.104030
    188 H381       86.4845   68.9577   31.8216 R1         2 LUT      0.104030
    189 H373       89.3025   64.7981   36.6343 T4         2 LUT      0.089537
    190 H372       87.6583   65.2655   36.5713 T4         2 LUT      0.089537
    191 H371       88.3241   64.2333   35.2784 T4         2 LUT      0.089537
    192 H363       88.9203   67.7901   36.6380 T4         2 LUT      0.089537
    193 H362       90.4881   67.1905   36.1232 T4         2 LUT      0.089537
    194 H361       89.6291   68.2252   35.1264 T4         2 LUT      0.089537
    195 H222       90.6165   65.4451   34.1489 U2         2 LUT      0.127376
    196 H221       89.3157   64.8834   33.1951 U2         2 LUT      0.127376
    197 H203       75.6541   63.7634   40.5158 R7         2 LUT      0.087068
    198 H202       74.7242   62.6685   41.5272 R7         2 LUT      0.087068
    199 H201       74.0191   64.2564   41.0417 R7         2 LUT      0.087068
    200 H193       71.7526   61.5735   43.6972 R4         2 LUT      0.089716
    201 H192       70.7205   60.9845   44.9395 R4         2 LUT      0.089716
    202 H191       70.3228   62.5006   44.0549 R4         2 LUT      0.089716
    203 H183       67.1205   64.6885   47.4175 R1         2 LUT      0.094572
    204 H182       68.4284   65.7296   47.8925 R1         2 LUT      0.094572
    205 H181       68.6824   64.4959   46.5810 R1         2 LUT      0.094572
    206 H173       71.2879   62.9626   50.8755 T4         2 LUT      0.093752
    207 H172       69.7664   63.3939   51.5236 T4         2 LUT      0.093752
    208 H171       70.3713   61.8722   51.9217 T4         2 LUT      0.093752
    209 H163       71.0629   60.5156   49.1844 T4         2 LUT      0.093752
    210 H162       69.9252   59.7416   50.2401 T4         2 LUT      0.093752
    211 H161       69.5575   60.0839   48.6218 T4         2 LUT      0.093752
    212 HO3        67.4002   63.5718   52.5039 Q1         2 LUT      0.300121
    213 H8         71.9515   63.4638   47.6336 U7         2 LUT      0.080784
    214 H7         69.4418   61.8170   46.8529 U6         2 LUT      0.042190
    215 H42        66.7613   64.5070   49.4251 U5         2 LUT      0.145166
    216 H41        68.1902   64.8447   50.4110 U5         2 LUT      0.145166
    217 H35        79.1261   66.1413   42.7725 T3         2 LUT      0.077919
    218 H34        79.5037   65.0637   39.8885 T2         2 LUT      0.073626
    219 H32        81.4207   65.1602   38.7061 T1         2 LUT      0.092510
    220 H31        83.3905   67.3870   39.6448 U9         2 LUT      0.070048
    221 H30        83.3247   65.5850   37.1638 U8         2 LUT      0.085442
    222 H3         66.2502   62.5100   50.1412 U3         2 LUT     -0.031596
    223 H28        84.9164   66.0826   35.5979 U7         2 LUT      0.084728
    224 H27        86.8729   68.1264   36.1540 U6         2 LUT      0.087291
    225 H26        86.8124   65.8244   34.0390 Q6         2 LUT      0.075325
    226 H24        88.8008   68.2236   31.5064 Q5         2 LUT      0.094482
    227 H23        90.5941   67.6180   33.1820 U3         2 LUT     -0.024869
    228 H22        67.5788   61.0226   49.6950 U2         2 LUT      0.127376
    229 H21        68.0721   61.1691   51.3687 U2         2 LUT      0.127376
    230 H15        77.3609   64.9085   40.5178 T3         2 LUT      0.093200
    231 H14        76.8835   65.6114   43.6025 T2         2 LUT      0.068865
    232 H12        75.2386   64.9319   44.7340 T1         2 LUT      0.095507
    233 H11        73.2699   63.2448   43.1325 U9         2 LUT      0.068930
    234 H10        73.4512   63.8599   46.1637 U8         2 LUT      0.083911
    235 H1         89.9711   66.2254   30.8550 Q1         2 LUT      0.297311
@<TRIPOS>BOND
    1     6     1 1
    2     7     2 1
    3     8     3 1
    4     9     4 1
    5    11     4 1
    6    12     6 1
    7    13     9 1
    8    16     9 1
    9    25     5 1
   10    25    16 1
   11    26    10 1
   12    26    17 1
   13    27    18 1
   14    28    14 1
   15    28    19 1
   16    29    12 1
   17    30    13 1
   18    31    24 1
   19    32     1 1
   20    32    25 1
   21    33    21 1
   22    33    26 1
   23    34    22 1
   24    34    27 1
   25    35    23 1
   26    35    28 1
   27    36    12 1
   28    36    24 1
   29    37    13 1
   30    37    15 1
   31    38    31 1
   32    39    20 1
   33    39    32 1
   34    40     2 1
   35    40    33 1
   36    41     3 1
   37    41    34 1
   38    42     4 1
   39    42    35 1
   40    43    38 1
   41    44     5 1
   42    44    17 1
   43    44    39 1
   44    45    10 1
   45    45    18 1
   46    45    40 1
   47    46    19 1
   48    46    41 1
   49    47    14 1
   50    47    16 1
   51    47    42 1
   52    48    38 1
   53    49    48 1
   54    50    49 1
   55    51    50 1
   56    52    51 1
   57    53    51 1
   58    54    53 1
   59    55    54 1
   60    56    55 1
   61    57    56 1
   62    58    56 1
   63    59    58 1
   64    60    59 1
   65    61    60 1
   66    62    61 1
   67    63    61 1
   68    64    27 1
   69    64    46 1
   70    65     5 1
   71    65    10 1
   72    65    64 1
   73    65    14 1
   74    66    23 1
   75    67    23 1
   76    68    23 1
   77    69    22 1
   78    70    22 1
   79    71    22 1
   80    72    21 1
   81    73    21 1
   82    74    21 1
   83    75    20 1
   84    76    20 1
   85    77    20 1
   86    78    15 1
   87    79    15 1
   88    80    15 1
   89    81     8 1
   90    82     8 1
   91    83     8 1
   92    84     7 1
   93    85     7 1
   94    86     6 1
   95    87     6 1
   96    88     3 1
   97    89     3 1
   98    90     1 1
   99    91     1 1
  100    92    63 1
  101    93    63 1
  102    94    63 1
  103    95    62 1
  104    96    62 1
  105    97    62 1
  106    98    60 1
  107    99    60 1
  108   100    59 1
  109   101    59 1
  110   102    58 1
  111   103    58 1
  112   104    57 1
  113   105    57 1
  114   106    57 1
  115   107    55 1
  116   108    55 1
  117   109    54 1
  118   110    54 1
  119   111    53 1
  120   112    53 1
  121   113    19 1
  122   114    18 1
  123   115    17 1
  124   116     9 1
  125   117     2 1
  126   118    52 1
  127   119    52 1
  128   120    52 1
  129   121    51 1
  130   122    50 1
  131   123    50 1
  132   124    49 1
  133   125    49 1
  134   126    48 1
  135   127    48 1
  136   128    43 1
  137   129    43 1
  138   130    43 1
  139   131    39 1
  140   132    32 1
  141   133    31 1
  142   134    61 1
  143   135    56 1
  144   136    24 1
  145   137    24 1
  146   139   138 1
  147   140   139 1
  148   141   140 1
  149   142   140 1
  150   143   142 1
  151   144   138 1
  152   144   143 1
  153   145   144 1
  154   146   145 1
  155   147   146 1
  156   148   147 1
  157   149   148 1
  158   150   149 1
  159   151   150 1
  160   152   151 1
  161   153   152 1
  162   154   138 1
  163   155   138 1
  164   156   143 1
  165   157   147 1
  166   158   151 1
  167   160   159 1
  168   161   160 1
  169   162   161 1
  170   163   161 1
  171   164   163 1
  172   165   159 1
  173   165   164 1
  174   166   165 1
  175   167   166 1
  176   168   167 1
  177   169   168 1
  178   170   169 1
  179   171   170 1
  180   172   171 1
  181   173   172 1
  182   174   153 1
  183   174   173 1
  184   175   159 1
  185   176   159 1
  186   177   164 1
  187   178   168 1
  188   179   172 1
  189   180   179 1
  190   181   179 1
  191   182   179 1
  192   183   178 1
  193   184   178 1
  194   185   178 1
  195   186   177 1
  196   187   177 1
  197   188   177 1
  198   189   176 1
  199   190   176 1
  200   191   176 1
  201   192   175 1
  202   193   175 1
  203   194   175 1
  204   195   160 1
  205   196   160 1
  206   197   158 1
  207   198   158 1
  208   199   158 1
  209   200   157 1
  210   201   157 1
  211   202   157 1
  212   203   156 1
  213   204   156 1
  214   205   156 1
  215   206   155 1
  216   207   155 1
  217   208   155 1
  218   209   154 1
  219   210   154 1
  220   211   154 1
  221   212   141 1
  222   213   146 1
  223   214   145 1
  224   215   142 1
  225   216   142 1
  226   217   174 1
  227   218   173 1
  228   219   171 1
  229   220   170 1
  230   221   169 1
  231   222   140 1
  232   223   167 1
  233   224   166 1
  234   225   165 1
  235   226   163 1
  236   227   161 1
  237   228   139 1
  238   229   139 1
  239   230   153 1
  240   231   152 1
  241   232   150 1
  242   233   149 1
  243   234   148 1
  244   235   162 1
  245   65    153 1
  246   65    174 1
@<TRIPOS>SUBSTRUCTURE
      1 CLA               1 ****               0 ****  **** 
      2 LUT             138 ****               0 ****  **** 
