@<TRIPOS>MOLECULE
Cpptraj generated mol2 file.
  235   246     2     0     0
SMALL
USER_CHARGES


@<TRIPOS>ATOM
      1 CAA        79.9213   59.4617   34.1784 a2         1 CLA     -0.055900
      2 CAB        79.6907   63.0560   42.9168 c8         1 CLA     -0.148500
      3 CAC        72.6889   59.5817   42.2397 a2         1 CLA     -0.012600
      4 CAD        75.4014   57.1686   34.9015 ck         1 CLA      0.398800
      5 NA         78.7847   59.6621   37.3465 ns         1 CLA     -0.225500
      6 CBA        81.1714   59.3809   33.3000 a2         1 CLA     -0.135000
      7 CBB        80.7878   63.2812   43.6752 c0         1 CLA     -0.395200
      8 CBC        72.7004   58.1044   42.4358 a3         1 CLA     -0.037700
      9 CBD        76.9245   57.6060   34.6051 a1         1 CLA     -0.053900
     10 NB         78.6210   61.2876   39.8229 nm         1 CLA     -0.295700
     11 OBD        74.7123   56.5359   34.0866 o2         1 CLA     -0.494600
     12 CGA        81.6422   58.0546   32.8355 c4         1 CLA      0.827000
     13 CGD        77.7781   56.4182   34.2121 c4         1 CLA      0.655300
     14 ND         75.9563   59.0338   37.7893 nm         1 CLA     -0.291600
     15 CED        78.4624   54.2726   34.8652 a3         1 CLA      0.005400
     16 CHA        77.3491   58.4788   35.8145 cs         1 CLA     -0.123800
     17 CHB        80.5514   60.9917   38.3926 aa         1 CLA     -0.291900
     18 CHC        77.3182   61.6358   41.8700 aa         1 CLA     -0.090400
     19 CHD        73.9746   59.1728   39.2492 aa         1 CLA     -0.052000
     20 CMA        82.1114   58.6173   36.9436 a3         1 CLA     -0.230700
     21 CMB        82.0137   62.7484   40.4553 a3         1 CLA     -0.180800
     22 CMC        74.9603   61.3166   43.7989 a3         1 CLA     -0.134000
     23 CMD        72.7176   57.3232   37.1861 a3         1 CLA     -0.141100
     24 C1         82.3693   55.8889   33.3410 a2         1 CLA      0.023000
     25 C1A        78.6245   58.9744   36.1718 ac         1 CLA     -0.015100
     26 C1B        79.9069   61.5338   39.4845 cr         1 CLA      0.054700
     27 C1C        76.1127   60.9940   41.5221 cn         1 CLA     -0.005600
     28 C1D        74.6290   58.7667   38.0726 ap         1 CLA     -0.047300
     29 O1A        81.5435   57.6348   31.6772 o2         1 CLA     -0.610800
     30 O1D        78.6954   56.4296   33.3688 o2         1 CLA     -0.558200
     31 C2         82.9587   55.1780   34.4733 c8         1 CLA     -0.325100
     32 C2A        79.9305   58.7935   35.4924 a1         1 CLA      0.098600
     33 C2B        80.5810   62.3005   40.5242 cb         1 CLA      0.088500
     34 C2C        74.9401   60.8312   42.3451 cb         1 CLA      0.053700
     35 C2D        74.0450   57.9189   37.0795 cb         1 CLA      0.058900
     36 O2A        82.2531   57.3256   33.8000 o1         1 CLA     -0.437200
     37 O2D        77.5285   55.3708   35.0552 o1         1 CLA     -0.357600
     38 C3         83.6881   54.0353   34.3051 c5         1 CLA      0.031200
     39 C3A        81.0235   59.4663   36.4138 a1         1 CLA      0.166800
     40 C3B        79.6879   62.3766   41.6097 cb         1 CLA      0.035000
     41 C3C        73.9557   60.0884   41.6454 cb         1 CLA     -0.089900
     42 C3D        75.0840   57.7723   36.1491 cb         1 CLA     -0.035900
     43 C4         82.9520   52.6612   34.1336 a3         1 CLA     -0.053300
     44 C4A        80.0996   60.0929   37.4618 ac         1 CLA      0.001800
     45 C4B        78.4836   61.7929   41.0883 cn         1 CLA     -0.020900
     46 C4C        74.5319   59.8255   40.3541 cr         1 CLA     -0.044400
     47 C4D        76.2182   58.4535   36.6335 c6         1 CLA     -0.046000
     48 C5         85.1873   54.0738   34.1174 a2         1 CLA     -0.070400
     49 C6         85.8344   55.2948   34.7592 a2         1 CLA      0.043900
     50 C7         85.8611   55.2828   36.3114 a2         1 CLA     -0.150000
     51 C8         86.5142   56.5261   37.0112 a1         1 CLA      0.064200
     52 C9         88.0423   56.5400   36.8042 a3         1 CLA     -0.259300
     53 C10        86.0208   56.5184   38.4850 a2         1 CLA     -0.071900
     54 C11        86.6555   57.5729   39.5162 a2         1 CLA      0.014500
     55 C12        85.8503   57.4172   40.8685 a2         1 CLA     -0.112100
     56 C13        86.0310   58.6317   41.8506 a1         1 CLA      0.089200
     57 C14        87.4721   58.6724   42.3320 a3         1 CLA     -0.239100
     58 C15        85.1093   58.5509   43.1363 a2         1 CLA     -0.102200
     59 C16        84.9835   59.8410   43.9668 a2         1 CLA      0.023900
     60 C17        84.3881   59.5965   45.3351 a2         1 CLA     -0.105700
     61 C18        84.3606   60.8779   46.2962 a1         1 CLA      0.206800
     62 C19        83.1033   61.7603   46.1152 a3         1 CLA     -0.280100
     63 C20        84.3614   60.3935   47.8096 a3         1 CLA     -0.280100
     64 NC         75.8019   60.4461   40.2568 nx         1 CLA     -0.309200
     65 MG         77.2319   60.2673   38.7156 mg         1 CLA      0.895000
     66 HMD3       71.9593   58.0226   36.8666 dc         1 CLA      0.064300
     67 HMD2       72.6439   56.4209   36.5095 dc         1 CLA      0.064300
     68 HMD1       72.6065   56.8934   38.1120 dc         1 CLA      0.064300
     69 HMC3       75.9029   60.9296   44.1843 dc         1 CLA      0.052100
     70 HMC2       74.9482   62.3876   43.7755 dc         1 CLA      0.052100
     71 HMC1       74.1085   61.0719   44.3338 dc         1 CLA      0.052100
     72 HMB3       82.5605   62.2095   41.2645 dc         1 CLA      0.063600
     73 HMB2       82.4264   62.5358   39.5307 dc         1 CLA      0.063600
     74 HMB1       82.0848   63.7872   40.6160 dc         1 CLA      0.063600
     75 HMA3       81.6759   57.7815   37.4957 dc         1 CLA      0.058300
     76 HMA2       82.7254   58.3523   36.0978 dc         1 CLA      0.058300
     77 HMA1       82.8693   59.0918   37.6745 dc         1 CLA      0.058300
     78 HED3       79.4376   54.5578   35.2430 dc         1 CLA      0.079300
     79 HED2       78.0714   53.5416   35.6304 dc         1 CLA      0.079300
     80 HED1       78.5862   53.7372   33.8894 dc         1 CLA      0.079300
     81 HBC3       71.8668   57.7799   42.9380 dc         1 CLA      0.016300
     82 HBC2       72.7925   57.5062   41.5432 dc         1 CLA      0.016300
     83 HBC1       73.5429   57.8556   43.0533 dc         1 CLA      0.016300
     84 HBB2       80.8298   63.9761   44.5708 da         1 CLA      0.183000
     85 HBB1       81.7792   63.0768   43.3497 da         1 CLA      0.183000
     86 HBA2       80.9311   59.9362   32.4228 dc         1 CLA      0.029400
     87 HBA1       82.0952   59.7487   33.6367 dc         1 CLA      0.029400
     88 HAC2       72.5512   60.0450   43.2384 dc         1 CLA      0.029300
     89 HAC1       71.8868   59.9106   41.6601 dc         1 CLA      0.029300
     90 HAA2       79.1775   58.8915   33.6412 dc         1 CLA      0.028700
     91 HAA1       79.4820   60.4426   34.2645 dc         1 CLA      0.028700
     92 H203       83.5129   59.7163   48.1061 dc         1 CLA      0.065600
     93 H202       85.2990   59.8663   48.0418 dc         1 CLA      0.065600
     94 H201       84.3028   61.3382   48.4097 dc         1 CLA      0.065600
     95 H193       82.9378   62.5478   46.8515 dc         1 CLA      0.065600
     96 H192       83.1356   62.2242   45.0751 dc         1 CLA      0.065600
     97 H191       82.2062   61.1847   46.2052 dc         1 CLA      0.065600
     98 H172       83.3650   59.1831   45.3681 dc         1 CLA      0.027600
     99 H171       85.0731   58.8820   45.7958 dc         1 CLA      0.027600
    100 H162       85.9385   60.2773   44.1436 dc         1 CLA      0.002900
    101 H161       84.4669   60.6531   43.5148 dc         1 CLA      0.002900
    102 H152       84.1665   58.3404   42.7720 dc         1 CLA      0.029100
    103 H151       85.5445   57.7935   43.7655 dc         1 CLA      0.029100
    104 H143       87.6934   59.3681   43.1234 dc         1 CLA      0.063600
    105 H142       87.8618   57.6661   42.6592 dc         1 CLA      0.063600
    106 H141       88.0530   59.0524   41.4612 dc         1 CLA      0.063600
    107 H122       84.7948   57.3042   40.5473 dc         1 CLA      0.032500
    108 H121       86.1413   56.5211   41.3293 dc         1 CLA      0.032500
    109 H112       87.7084   57.4263   39.7154 dc         1 CLA      0.006600
    110 H111       86.4604   58.5430   39.1642 dc         1 CLA      0.006600
    111 H102       84.9717   56.6032   38.3650 dc         1 CLA      0.024100
    112 H101       86.1629   55.5351   38.8495 dc         1 CLA      0.024100
    113 HHD        72.9711   58.9949   39.4994 da         1 CLA      0.174300
    114 HHC        77.4454   61.9545   42.8800 da         1 CLA      0.136800
    115 HHB        81.6581   61.1158   38.2631 da         1 CLA      0.138300
    116 HBD        76.8617   58.1536   33.6421 dc         1 CLA      0.107700
    117 HAB        78.8005   63.5299   43.2082 da         1 CLA      0.155200
    118 H93        88.3885   55.5009   36.9927 dc         1 CLA      0.069500
    119 H92        88.2716   56.6245   35.7091 dc         1 CLA      0.069500
    120 H91        88.5572   57.3022   37.4205 dc         1 CLA      0.069500
    121 H8         86.1357   57.4697   36.6805 dc         1 CLA      0.029300
    122 H72        84.8089   55.0972   36.7104 dc         1 CLA      0.044400
    123 H71        86.4532   54.4318   36.6367 dc         1 CLA      0.044400
    124 H62        86.8160   55.3657   34.3452 dc         1 CLA      0.015600
    125 H61        85.3034   56.2361   34.5537 dc         1 CLA      0.015600
    126 H52        85.5472   53.1159   34.4580 dc         1 CLA      0.033200
    127 H51        85.3929   54.1146   33.0419 dc         1 CLA      0.033200
    128 H43        83.4773   52.0791   33.3102 dc         1 CLA      0.037000
    129 H42        83.0798   52.1460   35.0824 dc         1 CLA      0.037000
    130 H41        82.0060   52.8244   33.8401 dc         1 CLA      0.037000
    131 H3A        81.5063   60.3027   35.8821 dc         1 CLA      0.041100
    132 H2A        80.0971   57.7561   35.3460 dc         1 CLA      0.083100
    133 H2         82.9045   55.6421   35.4331 da         1 CLA      0.180900
    134 H18        85.2383   61.4400   46.0582 dc         1 CLA     -0.003900
    135 H13        85.6767   59.5621   41.3762 dc         1 CLA      0.019700
    136 H12        81.4275   55.5043   32.9283 dc         1 CLA      0.120400
    137 H11        82.9723   55.6750   32.5116 dc         1 CLA      0.120400
    138 C1         68.9053   61.8562   49.1596 Z1         2 LUT      0.509236
    139 C2         67.5768   61.7229   49.8908 Z2         2 LUT     -0.434695
    140 C3         66.8181   62.9663   50.2156 Z3         2 LUT      0.437453
    141 O3         67.1340   63.5382   51.5148 S1         2 LUT     -0.547129
    142 C4         67.0654   64.0908   49.2333 Z4         2 LUT     -0.468603
    143 C5         67.8665   63.8187   48.0195 Z5         2 LUT      0.279246
    144 C6         68.7030   62.7634   47.8510 Z6         2 LUT     -0.305473
    145 C7         69.3354   62.2683   46.6464 Z7         2 LUT      0.069402
    146 C8         70.0696   63.0784   45.7844 Z8         2 LUT     -0.191631
    147 C9         70.6865   62.7441   44.5054 Z9         2 LUT      0.196698
    148 C10        71.7326   63.5606   44.0747 Y1         2 LUT     -0.208611
    149 C11        72.5371   63.5903   42.9226 Y2         2 LUT      0.030784
    150 C12        73.6555   64.3839   42.6966 Y3         2 LUT     -0.220316
    151 C13        74.5728   64.1933   41.6940 Y4         2 LUT      0.215937
    152 C14        75.7710   64.9162   41.8016 Y5         2 LUT     -0.185793
    153 C15        76.8886   64.8828   40.8018 Y6         2 LUT     -0.057835
    154 C16        69.3808   60.4567   48.7791 Y7         2 LUT     -0.405615
    155 C17        69.7265   62.4390   50.3066 Y7         2 LUT     -0.405615
    156 C18        67.4192   64.7816   46.9215 Y9         2 LUT     -0.369639
    157 C19        70.2482   61.5506   43.6437 W1         2 LUT     -0.333362
    158 C20        74.0984   63.5535   40.4182 W2         2 LUT     -0.323439
    159 C21        88.5217   66.7883   35.1966 Z1         2 LUT      0.406104
    160 C22        89.1823   66.2951   33.9110 Z2         2 LUT     -0.404965
    161 C23        89.3765   67.3226   32.8557 Z3         2 LUT      0.391255
    162 O23        90.2529   66.7813   31.8568 S1         2 LUT     -0.528210
    163 C24        88.0628   67.9803   32.5193 W6         2 LUT     -0.258361
    164 C25        87.0060   67.9391   33.3223 Z5         2 LUT      0.133546
    165 C26        87.0162   67.1792   34.6504 W8         2 LUT     -0.147008
    166 C27        86.1573   67.6964   35.7473 Z7         2 LUT      0.023843
    167 C28        85.0535   67.1809   36.3306 Z8         2 LUT     -0.216987
    168 C29        84.3400   67.5355   37.5834 Z9         2 LUT      0.206524
    169 C30        83.1905   66.8249   37.8488 Y1         2 LUT     -0.215556
    170 C31        82.3974   66.9072   39.0318 Y2         2 LUT      0.025142
    171 C32        81.2223   66.1790   39.1082 Y3         2 LUT     -0.212209
    172 C33        80.3310   66.1190   40.2547 Y4         2 LUT      0.240937
    173 C34        79.1131   65.4566   40.2128 Y5         2 LUT     -0.218862
    174 C35        77.9893   65.5778   41.1359 Y6         2 LUT     -0.023547
    175 C36        89.4373   67.7744   35.9462 Y7         2 LUT     -0.393485
    176 C37        88.5754   65.4624   36.0763 Y7         2 LUT     -0.393485
    177 C38        85.6052   68.6073   32.9706 Y9         2 LUT     -0.387526
    178 C39        84.9181   68.4658   38.5635 W1         2 LUT     -0.322618
    179 C40        80.7352   67.0214   41.4752 W2         2 LUT     -0.358472
    180 H403       81.7483   66.8082   41.6672 R7         2 LUT      0.097720
    181 H402       80.6365   68.0455   41.1711 R7         2 LUT      0.097720
    182 H401       80.1661   66.7845   42.4151 R7         2 LUT      0.097720
    183 H393       85.4984   68.0108   39.3435 R4         2 LUT      0.082505
    184 H392       85.6214   69.0716   38.1189 R4         2 LUT      0.082505
    185 H391       84.1704   69.2192   38.9958 R4         2 LUT      0.082505
    186 H383       84.8138   67.7876   32.8751 R1         2 LUT      0.104030
    187 H382       85.3443   69.3288   33.7361 R1         2 LUT      0.104030
    188 H381       85.7870   69.1416   32.0328 R1         2 LUT      0.104030
    189 H373       88.1307   64.5101   35.6963 T4         2 LUT      0.089537
    190 H372       89.5700   65.2876   36.4372 T4         2 LUT      0.089537
    191 H371       88.1461   65.7081   37.0287 T4         2 LUT      0.089537
    192 H363       90.3645   67.3271   36.2717 T4         2 LUT      0.089537
    193 H362       89.7365   68.6970   35.3220 T4         2 LUT      0.089537
    194 H361       88.9428   68.0972   36.8915 T4         2 LUT      0.089537
    195 H222       90.1867   65.9453   34.1878 U2         2 LUT      0.127376
    196 H221       88.6115   65.4863   33.3926 U2         2 LUT      0.127376
    197 H203       73.8456   62.4984   40.4576 R7         2 LUT      0.087068
    198 H202       73.0817   63.9719   40.1275 R7         2 LUT      0.087068
    199 H201       74.6334   63.8101   39.5752 R7         2 LUT      0.087068
    200 H193       69.2719   61.2843   43.8495 R4         2 LUT      0.089716
    201 H192       70.3496   61.8952   42.5894 R4         2 LUT      0.089716
    202 H191       70.7715   60.6099   43.7988 R4         2 LUT      0.089716
    203 H183       66.3429   64.9353   47.0305 R1         2 LUT      0.094572
    204 H182       67.9175   65.7392   47.1425 R1         2 LUT      0.094572
    205 H181       67.5826   64.5557   45.8428 R1         2 LUT      0.094572
    206 H173       70.7939   62.5351   50.0554 T4         2 LUT      0.093752
    207 H172       69.4205   63.4310   50.6095 T4         2 LUT      0.093752
    208 H171       69.7252   61.8558   51.2547 T4         2 LUT      0.093752
    209 H163       68.6906   59.8405   48.1852 T4         2 LUT      0.093752
    210 H162       70.2842   60.5040   48.1718 T4         2 LUT      0.093752
    211 H161       69.5865   59.8694   49.6458 T4         2 LUT      0.093752
    212 HO3        66.5903   63.1375   52.2358 Q1         2 LUT      0.300121
    213 H8         70.2777   64.0984   46.1322 U7         2 LUT      0.080784
    214 H7         69.0571   61.2572   46.2862 U6         2 LUT      0.042190
    215 H42        66.0949   64.6000   49.1616 U5         2 LUT      0.145166
    216 H41        67.6241   64.8842   49.7980 U5         2 LUT      0.145166
    217 H35        78.0692   66.0861   42.0219 T3         2 LUT      0.077919
    218 H34        79.0074   64.8587   39.2877 T2         2 LUT      0.073626
    219 H32        80.9058   65.5808   38.2404 T1         2 LUT      0.092510
    220 H31        82.7389   67.5020   39.8827 U9         2 LUT      0.070048
    221 H30        82.7994   66.1448   37.0635 U8         2 LUT      0.085442
    222 H3         65.7159   62.7239   50.1628 U3         2 LUT     -0.031596
    223 H28        84.5429   66.4369   35.7472 U7         2 LUT      0.084728
    224 H27        86.7259   68.4532   36.3754 U6         2 LUT      0.087291
    225 H26        86.5614   66.2001   34.3312 Q6         2 LUT      0.075325
    226 H24        88.0779   68.4860   31.5940 Q5         2 LUT      0.094482
    227 H23        89.8943   68.1947   33.1838 U3         2 LUT     -0.024869
    228 H22        66.9802   61.2681   49.0982 U2         2 LUT      0.127376
    229 H21        67.5458   61.0652   50.7127 U2         2 LUT      0.127376
    230 H15        76.9596   64.2562   39.8403 T3         2 LUT      0.093200
    231 H14        75.8971   65.5581   42.6660 T2         2 LUT      0.068865
    232 H12        73.9585   65.0471   43.5130 T1         2 LUT      0.095507
    233 H11        72.3473   62.7568   42.2483 U9         2 LUT      0.068930
    234 H10        72.0411   64.2702   44.8270 U8         2 LUT      0.083911
    235 H1         89.8103   66.5659   31.0383 Q1         2 LUT      0.297311
@<TRIPOS>BOND
    1     6     1 1
    2     7     2 1
    3     8     3 1
    4     9     4 1
    5    11     4 1
    6    12     6 1
    7    13     9 1
    8    16     9 1
    9    25     5 1
   10    25    16 1
   11    26    10 1
   12    26    17 1
   13    27    18 1
   14    28    14 1
   15    28    19 1
   16    29    12 1
   17    30    13 1
   18    31    24 1
   19    32     1 1
   20    32    25 1
   21    33    21 1
   22    33    26 1
   23    34    22 1
   24    34    27 1
   25    35    23 1
   26    35    28 1
   27    36    12 1
   28    36    24 1
   29    37    13 1
   30    37    15 1
   31    38    31 1
   32    39    20 1
   33    39    32 1
   34    40     2 1
   35    40    33 1
   36    41     3 1
   37    41    34 1
   38    42     4 1
   39    42    35 1
   40    43    38 1
   41    44     5 1
   42    44    17 1
   43    44    39 1
   44    45    10 1
   45    45    18 1
   46    45    40 1
   47    46    19 1
   48    46    41 1
   49    47    14 1
   50    47    16 1
   51    47    42 1
   52    48    38 1
   53    49    48 1
   54    50    49 1
   55    51    50 1
   56    52    51 1
   57    53    51 1
   58    54    53 1
   59    55    54 1
   60    56    55 1
   61    57    56 1
   62    58    56 1
   63    59    58 1
   64    60    59 1
   65    61    60 1
   66    62    61 1
   67    63    61 1
   68    64    27 1
   69    64    46 1
   70    65     5 1
   71    65    10 1
   72    65    64 1
   73    65    14 1
   74    66    23 1
   75    67    23 1
   76    68    23 1
   77    69    22 1
   78    70    22 1
   79    71    22 1
   80    72    21 1
   81    73    21 1
   82    74    21 1
   83    75    20 1
   84    76    20 1
   85    77    20 1
   86    78    15 1
   87    79    15 1
   88    80    15 1
   89    81     8 1
   90    82     8 1
   91    83     8 1
   92    84     7 1
   93    85     7 1
   94    86     6 1
   95    87     6 1
   96    88     3 1
   97    89     3 1
   98    90     1 1
   99    91     1 1
  100    92    63 1
  101    93    63 1
  102    94    63 1
  103    95    62 1
  104    96    62 1
  105    97    62 1
  106    98    60 1
  107    99    60 1
  108   100    59 1
  109   101    59 1
  110   102    58 1
  111   103    58 1
  112   104    57 1
  113   105    57 1
  114   106    57 1
  115   107    55 1
  116   108    55 1
  117   109    54 1
  118   110    54 1
  119   111    53 1
  120   112    53 1
  121   113    19 1
  122   114    18 1
  123   115    17 1
  124   116     9 1
  125   117     2 1
  126   118    52 1
  127   119    52 1
  128   120    52 1
  129   121    51 1
  130   122    50 1
  131   123    50 1
  132   124    49 1
  133   125    49 1
  134   126    48 1
  135   127    48 1
  136   128    43 1
  137   129    43 1
  138   130    43 1
  139   131    39 1
  140   132    32 1
  141   133    31 1
  142   134    61 1
  143   135    56 1
  144   136    24 1
  145   137    24 1
  146   139   138 1
  147   140   139 1
  148   141   140 1
  149   142   140 1
  150   143   142 1
  151   144   138 1
  152   144   143 1
  153   145   144 1
  154   146   145 1
  155   147   146 1
  156   148   147 1
  157   149   148 1
  158   150   149 1
  159   151   150 1
  160   152   151 1
  161   153   152 1
  162   154   138 1
  163   155   138 1
  164   156   143 1
  165   157   147 1
  166   158   151 1
  167   160   159 1
  168   161   160 1
  169   162   161 1
  170   163   161 1
  171   164   163 1
  172   165   159 1
  173   165   164 1
  174   166   165 1
  175   167   166 1
  176   168   167 1
  177   169   168 1
  178   170   169 1
  179   171   170 1
  180   172   171 1
  181   173   172 1
  182   174   153 1
  183   174   173 1
  184   175   159 1
  185   176   159 1
  186   177   164 1
  187   178   168 1
  188   179   172 1
  189   180   179 1
  190   181   179 1
  191   182   179 1
  192   183   178 1
  193   184   178 1
  194   185   178 1
  195   186   177 1
  196   187   177 1
  197   188   177 1
  198   189   176 1
  199   190   176 1
  200   191   176 1
  201   192   175 1
  202   193   175 1
  203   194   175 1
  204   195   160 1
  205   196   160 1
  206   197   158 1
  207   198   158 1
  208   199   158 1
  209   200   157 1
  210   201   157 1
  211   202   157 1
  212   203   156 1
  213   204   156 1
  214   205   156 1
  215   206   155 1
  216   207   155 1
  217   208   155 1
  218   209   154 1
  219   210   154 1
  220   211   154 1
  221   212   141 1
  222   213   146 1
  223   214   145 1
  224   215   142 1
  225   216   142 1
  226   217   174 1
  227   218   173 1
  228   219   171 1
  229   220   170 1
  230   221   169 1
  231   222   140 1
  232   223   167 1
  233   224   166 1
  234   225   165 1
  235   226   163 1
  236   227   161 1
  237   228   139 1
  238   229   139 1
  239   230   153 1
  240   231   152 1
  241   232   150 1
  242   233   149 1
  243   234   148 1
  244   235   162 1
  245   65    153 1
  246   65    174 1
@<TRIPOS>SUBSTRUCTURE
      1 CLA               1 ****               0 ****  **** 
      2 LUT             138 ****               0 ****  **** 
