@<TRIPOS>MOLECULE
Cpptraj generated mol2 file.
  235   246     2     0     0
SMALL
USER_CHARGES


@<TRIPOS>ATOM
      1 CAA        79.8294   58.4301   34.6421 a2         1 CLA     -0.055900
      2 CAB        79.5100   62.3035   43.5156 c8         1 CLA     -0.148500
      3 CAC        72.6217   58.3523   43.1869 a2         1 CLA     -0.012600
      4 CAD        75.3659   55.9679   35.6736 ck         1 CLA      0.398800
      5 NA         78.6704   58.7328   38.0683 ns         1 CLA     -0.225500
      6 CBA        81.1098   58.2982   33.7949 a2         1 CLA     -0.135000
      7 CBB        80.6774   62.4533   44.1998 c0         1 CLA     -0.395200
      8 CBC        72.5799   56.8663   43.3880 a3         1 CLA     -0.037700
      9 CBD        76.9380   56.4872   35.4442 a1         1 CLA     -0.053900
     10 NB         78.4838   60.2964   40.6518 nm         1 CLA     -0.295700
     11 OBD        74.6161   55.4245   34.8384 o2         1 CLA     -0.494600
     12 CGA        81.4770   56.8525   33.3714 c4         1 CLA      0.827000
     13 CGD        77.7791   55.2904   35.1508 c4         1 CLA      0.655300
     14 ND         75.8653   57.9176   38.5901 nm         1 CLA     -0.291600
     15 CED        78.2133   52.9716   35.6944 a3         1 CLA      0.005400
     16 CHA        77.3067   57.2836   36.6792 cs         1 CLA     -0.123800
     17 CHB        80.3412   60.2573   39.0139 aa         1 CLA     -0.291900
     18 CHC        77.1000   60.6561   42.6385 aa         1 CLA     -0.090400
     19 CHD        73.9515   57.8818   40.1811 aa         1 CLA     -0.052000
     20 CMA        81.9733   58.0070   37.4679 a3         1 CLA     -0.230700
     21 CMB        81.6483   61.9992   41.1870 a3         1 CLA     -0.180800
     22 CMC        74.8692   60.1014   44.6698 a3         1 CLA     -0.134000
     23 CMD        72.6252   55.9492   37.8154 a3         1 CLA     -0.141100
     24 C1         82.0761   54.6683   34.2977 a2         1 CLA      0.023000
     25 C1A        78.5185   57.9548   36.9588 ac         1 CLA     -0.015100
     26 C1B        79.7320   60.6193   40.1848 cr         1 CLA      0.054700
     27 C1C        75.9662   59.8955   42.3217 cn         1 CLA     -0.005600
     28 C1D        74.5638   57.5252   38.9177 ap         1 CLA     -0.047300
     29 O1A        81.4095   56.3708   32.2631 o2         1 CLA     -0.610800
     30 O1D        78.8322   55.2458   34.4679 o2         1 CLA     -0.558200
     31 C2         83.0514   54.1695   35.4198 c8         1 CLA     -0.325100
     32 C2A        79.8097   57.9270   36.0812 a1         1 CLA      0.098600
     33 C2B        80.2792   61.4412   41.2389 cb         1 CLA      0.088500
     34 C2C        74.8762   59.6027   43.2776 cb         1 CLA      0.053700
     35 C2D        73.9461   56.6877   37.8654 cb         1 CLA      0.058900
     36 O2A        81.9610   56.1388   34.4662 o1         1 CLA     -0.437200
     37 O2D        77.3899   54.2027   35.8733 o1         1 CLA     -0.357600
     38 C3         84.1534   53.4413   35.2410 c5         1 CLA      0.031200
     39 C3A        80.7873   58.8385   36.9193 a1         1 CLA      0.166800
     40 C3B        79.3913   61.5658   42.2547 cb         1 CLA      0.035000
     41 C3C        73.9097   58.8271   42.5426 cb         1 CLA     -0.089900
     42 C3D        75.0167   56.5179   36.9498 cb         1 CLA     -0.035900
     43 C4         84.1140   51.9136   34.8759 a3         1 CLA     -0.053300
     44 C4A        79.8523   59.3604   38.0953 ac         1 CLA      0.001800
     45 C4B        78.2811   60.8258   41.9021 cn         1 CLA     -0.020900
     46 C4C        74.4809   58.6263   41.2247 cr         1 CLA     -0.044400
     47 C4D        76.1313   57.3358   37.4241 c6         1 CLA     -0.046000
     48 C5         85.4834   54.1258   35.0663 a2         1 CLA     -0.070400
     49 C6         85.8577   55.3254   35.9468 a2         1 CLA      0.043900
     50 C7         85.9299   55.0580   37.5428 a2         1 CLA     -0.150000
     51 C8         85.9804   56.2593   38.4696 a1         1 CLA      0.064200
     52 C9         87.2497   57.1185   38.0926 a3         1 CLA     -0.259300
     53 C10        85.9157   55.8401   39.9511 a2         1 CLA     -0.071900
     54 C11        85.8375   56.9553   41.0300 a2         1 CLA      0.014500
     55 C12        86.3170   56.5101   42.4226 a2         1 CLA     -0.112100
     56 C13        86.5249   57.8027   43.3362 a1         1 CLA      0.089200
     57 C14        87.9030   58.4464   43.1339 a3         1 CLA     -0.239100
     58 C15        86.1774   57.5737   44.8501 a2         1 CLA     -0.102200
     59 C16        86.0701   58.8369   45.6884 a2         1 CLA      0.023900
     60 C17        85.8849   58.4892   47.1624 a2         1 CLA     -0.105700
     61 C18        85.4995   59.7087   48.1014 a1         1 CLA      0.206800
     62 C19        84.1963   60.4228   47.7519 a3         1 CLA     -0.280100
     63 C20        85.5705   59.3906   49.6550 a3         1 CLA     -0.280100
     64 NC         75.7438   59.2294   41.1681 nx         1 CLA     -0.309200
     65 MG         77.1089   59.1807   39.5445 mg         1 CLA      0.895000
     66 HMD3       72.4649   55.1841   37.1106 dc         1 CLA      0.064300
     67 HMD2       72.4719   55.4235   38.7418 dc         1 CLA      0.064300
     68 HMD1       71.8022   56.6853   37.8641 dc         1 CLA      0.064300
     69 HMC3       74.9297   61.1088   44.8805 dc         1 CLA      0.052100
     70 HMC2       73.9722   59.8567   45.1399 dc         1 CLA      0.052100
     71 HMC1       75.6556   59.5534   45.2111 dc         1 CLA      0.052100
     72 HMB3       81.7185   62.8533   41.8643 dc         1 CLA      0.063600
     73 HMB2       82.3736   61.2464   41.4222 dc         1 CLA      0.063600
     74 HMB1       81.7324   62.3400   40.1470 dc         1 CLA      0.063600
     75 HMA3       82.6144   57.7780   36.6027 dc         1 CLA      0.058300
     76 HMA2       82.5915   58.5549   38.2045 dc         1 CLA      0.058300
     77 HMA1       81.5707   57.0743   37.9555 dc         1 CLA      0.058300
     78 HED3       78.1460   52.4420   34.7335 dc         1 CLA      0.079300
     79 HED2       79.2922   53.1843   35.9320 dc         1 CLA      0.079300
     80 HED1       77.8407   52.1846   36.3804 dc         1 CLA      0.079300
     81 HBC3       71.6521   56.6703   43.8801 dc         1 CLA      0.016300
     82 HBC2       72.7250   56.2801   42.4442 dc         1 CLA      0.016300
     83 HBC1       73.2830   56.6351   44.1390 dc         1 CLA      0.016300
     84 HBB2       80.7413   63.0339   45.1724 da         1 CLA      0.183000
     85 HBB1       81.7074   62.1596   43.8594 da         1 CLA      0.183000
     86 HBA2       80.8594   58.9278   32.8845 dc         1 CLA      0.029400
     87 HBA1       81.9601   58.8726   34.1922 dc         1 CLA      0.029400
     88 HAC2       72.4672   58.7231   44.1268 dc         1 CLA      0.029300
     89 HAC1       71.8399   58.8278   42.5891 dc         1 CLA      0.029300
     90 HAA2       79.1251   57.9324   34.0248 dc         1 CLA      0.028700
     91 HAA1       79.6151   59.5561   34.5680 dc         1 CLA      0.028700
     92 H203       84.7627   58.6629   49.8148 dc         1 CLA      0.065600
     93 H202       86.5273   58.9984   49.8703 dc         1 CLA      0.065600
     94 H201       85.4269   60.2354   50.2943 dc         1 CLA      0.065600
     95 H193       84.1030   61.0934   48.6197 dc         1 CLA      0.065600
     96 H192       84.2485   60.9030   46.8307 dc         1 CLA      0.065600
     97 H191       83.3229   59.7546   47.6916 dc         1 CLA      0.065600
     98 H172       85.0816   57.7311   47.2641 dc         1 CLA      0.027600
     99 H171       86.7812   58.0663   47.6342 dc         1 CLA      0.027600
    100 H162       87.0189   59.4095   45.5081 dc         1 CLA      0.002900
    101 H161       85.2262   59.5117   45.3637 dc         1 CLA      0.002900
    102 H152       85.3073   57.0112   44.7761 dc         1 CLA      0.029100
    103 H151       86.8521   56.8862   45.2939 dc         1 CLA      0.029100
    104 H143       88.6466   57.9501   43.7145 dc         1 CLA      0.063600
    105 H142       88.1715   58.4245   42.0735 dc         1 CLA      0.063600
    106 H141       87.8223   59.5600   43.4455 dc         1 CLA      0.063600
    107 H122       85.5608   55.8516   42.7462 dc         1 CLA      0.032500
    108 H121       87.3015   56.0322   42.4068 dc         1 CLA      0.032500
    109 H112       86.4466   57.7582   40.6596 dc         1 CLA      0.006600
    110 H111       84.7865   57.3293   41.0974 dc         1 CLA      0.006600
    111 H102       84.9451   55.3782   39.8544 dc         1 CLA      0.024100
    112 H101       86.6408   55.0173   40.2258 dc         1 CLA      0.024100
    113 HHD        72.9302   57.4694   40.3102 da         1 CLA      0.174300
    114 HHC        77.1493   60.9294   43.6669 da         1 CLA      0.136800
    115 HHB        81.3843   60.5912   38.8686 da         1 CLA      0.138300
    116 HBD        77.0606   57.0367   34.5718 dc         1 CLA      0.107700
    117 HAB        78.6082   62.7368   43.9102 da         1 CLA      0.155200
    118 H93        87.3417   57.3395   36.9999 dc         1 CLA      0.069500
    119 H92        87.1462   58.1174   38.5384 dc         1 CLA      0.069500
    120 H91        88.1758   56.7318   38.4432 dc         1 CLA      0.069500
    121 H8         85.2020   56.9853   38.3435 dc         1 CLA      0.029300
    122 H72        84.9510   54.5599   37.7562 dc         1 CLA      0.044400
    123 H71        86.8189   54.4982   37.8194 dc         1 CLA      0.044400
    124 H62        86.7316   55.7796   35.4473 dc         1 CLA      0.015600
    125 H61        85.0371   56.0525   35.8658 dc         1 CLA      0.015600
    126 H52        86.3450   53.4044   35.1621 dc         1 CLA      0.033200
    127 H51        85.3438   54.4845   34.0724 dc         1 CLA      0.033200
    128 H43        83.1151   51.5574   34.9872 dc         1 CLA      0.037000
    129 H42        84.3165   51.7980   33.8388 dc         1 CLA      0.037000
    130 H41        84.7486   51.3320   35.4214 dc         1 CLA      0.037000
    131 H3A        81.1072   59.7694   36.4449 dc         1 CLA      0.041100
    132 H2A        80.0556   56.8472   36.1634 dc         1 CLA      0.083100
    133 H2         82.7444   54.3099   36.4429 da         1 CLA      0.180900
    134 H18        86.2087   60.5088   47.9274 dc         1 CLA     -0.003900
    135 H13        85.7685   58.5689   43.1172 dc         1 CLA      0.019700
    136 H12        81.0941   54.3331   34.5850 dc         1 CLA      0.120400
    137 H11        82.2594   54.3777   33.2701 dc         1 CLA      0.120400
    138 C1         69.1034   61.4795   50.1385 Z1         2 LUT      0.509236
    139 C2         67.8520   61.3008   50.9285 Z2         2 LUT     -0.434695
    140 C3         66.9077   62.5193   51.0059 Z3         2 LUT      0.437453
    141 O3         66.8049   62.8152   52.3832 S1         2 LUT     -0.547129
    142 C4         67.3819   63.7066   50.2074 Z4         2 LUT     -0.468603
    143 C5         68.0275   63.3785   48.9376 Z5         2 LUT      0.279246
    144 C6         68.9978   62.3931   48.9401 Z6         2 LUT     -0.305473
    145 C7         69.5212   61.8644   47.6930 Z7         2 LUT      0.069402
    146 C8         70.3925   62.5415   46.8841 Z8         2 LUT     -0.191631
    147 C9         71.0393   62.1871   45.5935 Z9         2 LUT      0.196698
    148 C10        71.9304   63.0541   45.1092 Y1         2 LUT     -0.208611
    149 C11        72.7249   62.8894   43.9483 Y2         2 LUT      0.030784
    150 C12        73.7397   63.7442   43.5802 Y3         2 LUT     -0.220316
    151 C13        74.7720   63.5368   42.5613 Y4         2 LUT      0.215937
    152 C14        75.8738   64.3093   42.5997 Y5         2 LUT     -0.185793
    153 C15        77.0627   64.2517   41.8065 Y6         2 LUT     -0.057835
    154 C16        69.7193   60.1064   49.9572 Y7         2 LUT     -0.405615
    155 C17        70.0401   62.1748   51.2156 Y7         2 LUT     -0.405615
    156 C18        67.4661   64.0885   47.7771 Y9         2 LUT     -0.369639
    157 C19        70.5884   60.9131   44.9592 W1         2 LUT     -0.333362
    158 C20        74.3028   62.7536   41.3054 W2         2 LUT     -0.323439
    159 C21        88.2963   65.7152   35.5982 Z1         2 LUT      0.406104
    160 C22        89.0002   65.1472   34.3986 Z2         2 LUT     -0.404965
    161 C23        89.1771   65.9969   33.1226 Z3         2 LUT      0.391255
    162 O23        89.6570   65.0743   32.0986 S1         2 LUT     -0.528210
    163 C24        87.8990   66.6737   32.8440 W6         2 LUT     -0.258361
    164 C25        86.7973   66.6259   33.6752 Z5         2 LUT      0.133546
    165 C26        86.8429   66.1100   35.1339 W8         2 LUT     -0.147008
    166 C27        86.0353   66.7931   36.2608 Z7         2 LUT      0.023843
    167 C28        85.2875   66.1660   37.1944 Z8         2 LUT     -0.216987
    168 C29        84.3713   66.8480   38.1190 Z9         2 LUT      0.206524
    169 C30        83.3080   66.0900   38.6172 Y1         2 LUT     -0.215556
    170 C31        82.4470   66.4784   39.6826 Y2         2 LUT      0.025142
    171 C32        81.3417   65.7848   40.0036 Y3         2 LUT     -0.212209
    172 C33        80.4524   65.9204   41.0968 Y4         2 LUT      0.240937
    173 C34        79.3117   65.0744   41.1508 Y5         2 LUT     -0.218862
    174 C35        78.2084   65.1011   41.9781 Y6         2 LUT     -0.023547
    175 C36        89.0189   67.0755   36.0021 Y7         2 LUT     -0.393485
    176 C37        88.2070   64.6444   36.6721 Y7         2 LUT     -0.393485
    177 C38        85.5495   67.1495   33.0572 Y9         2 LUT     -0.387526
    178 C39        84.7744   68.3177   38.6484 W1         2 LUT     -0.322618
    179 C40        80.7155   66.9921   42.1427 W2         2 LUT     -0.358472
    180 H403       80.5350   68.0131   41.7383 R7         2 LUT      0.097720
    181 H402       80.0628   66.8178   43.0227 R7         2 LUT      0.097720
    182 H401       81.7687   66.9763   42.4796 R7         2 LUT      0.097720
    183 H393       84.6340   68.4198   39.6959 R4         2 LUT      0.082505
    184 H392       85.7969   68.6194   38.4755 R4         2 LUT      0.082505
    185 H391       84.0948   69.0134   38.0633 R4         2 LUT      0.082505
    186 H383       85.6348   67.6000   32.1316 R1         2 LUT      0.104030
    187 H382       84.7035   66.4102   32.8689 R1         2 LUT      0.104030
    188 H381       85.1621   67.9301   33.7349 R1         2 LUT      0.104030
    189 H373       87.5303   63.7970   36.4803 T4         2 LUT      0.089537
    190 H372       89.1551   64.2199   36.7942 T4         2 LUT      0.089537
    191 H371       87.9045   65.1736   37.6097 T4         2 LUT      0.089537
    192 H363       88.4891   67.5041   36.8711 T4         2 LUT      0.089537
    193 H362       90.1192   66.9404   36.2053 T4         2 LUT      0.089537
    194 H361       88.9193   67.7824   35.1405 T4         2 LUT      0.089537
    195 H222       89.9730   64.8575   34.6989 U2         2 LUT      0.127376
    196 H221       88.5356   64.1694   34.2622 U2         2 LUT      0.127376
    197 H203       74.2043   61.6756   41.4426 R7         2 LUT      0.087068
    198 H202       73.2753   62.9962   41.0481 R7         2 LUT      0.087068
    199 H201       74.8712   63.0843   40.4180 R7         2 LUT      0.087068
    200 H193       69.5487   60.7252   45.0860 R4         2 LUT      0.089716
    201 H192       70.7510   60.9007   43.8797 R4         2 LUT      0.089716
    202 H191       71.1936   60.2676   45.5346 R4         2 LUT      0.089716
    203 H183       66.4150   64.0734   47.7674 R1         2 LUT      0.094572
    204 H182       67.8945   65.0783   47.8779 R1         2 LUT      0.094572
    205 H181       67.6832   63.7219   46.7550 R1         2 LUT      0.094572
    206 H173       69.9147   61.9006   52.3196 T4         2 LUT      0.093752
    207 H172       71.0926   62.0571   50.9611 T4         2 LUT      0.093752
    208 H171       69.8977   63.2487   51.2248 T4         2 LUT      0.093752
    209 H163       70.0870   59.8413   50.9321 T4         2 LUT      0.093752
    210 H162       68.9930   59.3026   49.6375 T4         2 LUT      0.093752
    211 H161       70.5485   60.1257   49.2373 T4         2 LUT      0.093752
    212 HO3        66.0840   62.3388   52.7864 Q1         2 LUT      0.300121
    213 H8         70.6189   63.5234   47.2378 U7         2 LUT      0.080784
    214 H7         69.2615   60.8501   47.4036 U6         2 LUT      0.042190
    215 H42        66.4646   64.3036   50.0758 U5         2 LUT      0.145166
    216 H41        67.9803   64.3766   50.8635 U5         2 LUT      0.145166
    217 H35        78.0684   65.8232   42.7719 T3         2 LUT      0.077919
    218 H34        79.2296   64.2518   40.4064 T2         2 LUT      0.073626
    219 H32        81.1162   64.9736   39.2539 T1         2 LUT      0.092510
    220 H31        82.7776   67.2608   40.3716 U9         2 LUT      0.070048
    221 H30        83.1917   65.0586   38.2690 U8         2 LUT      0.085442
    222 H3         65.9486   62.2504   50.5684 U3         2 LUT     -0.031596
    223 H28        85.1242   65.1122   37.0739 U7         2 LUT      0.084728
    224 H27        86.0313   67.8980   36.3285 U6         2 LUT      0.087291
    225 H26        86.1385   65.2701   34.9287 Q6         2 LUT      0.075325
    226 H24        87.8939   67.1388   31.8985 Q5         2 LUT      0.094482
    227 H23        89.8520   66.8189   33.2880 U3         2 LUT     -0.024869
    228 H22        67.3047   60.6585   50.2489 U2         2 LUT      0.127376
    229 H21        68.0036   60.7703   51.8648 U2         2 LUT      0.127376
    230 H15        77.2320   63.5057   41.0876 T3         2 LUT      0.093200
    231 H14        75.8502   65.0967   43.3356 T2         2 LUT      0.068865
    232 H12        73.9160   64.5167   44.3234 T1         2 LUT      0.095507
    233 H11        72.6710   61.9189   43.4440 U9         2 LUT      0.068930
    234 H10        72.1467   64.0231   45.5291 U8         2 LUT      0.083911
    235 H1         89.6042   65.3023   31.1650 Q1         2 LUT      0.297311
@<TRIPOS>BOND
    1     6     1 1
    2     7     2 1
    3     8     3 1
    4     9     4 1
    5    11     4 1
    6    12     6 1
    7    13     9 1
    8    16     9 1
    9    25     5 1
   10    25    16 1
   11    26    10 1
   12    26    17 1
   13    27    18 1
   14    28    14 1
   15    28    19 1
   16    29    12 1
   17    30    13 1
   18    31    24 1
   19    32     1 1
   20    32    25 1
   21    33    21 1
   22    33    26 1
   23    34    22 1
   24    34    27 1
   25    35    23 1
   26    35    28 1
   27    36    12 1
   28    36    24 1
   29    37    13 1
   30    37    15 1
   31    38    31 1
   32    39    20 1
   33    39    32 1
   34    40     2 1
   35    40    33 1
   36    41     3 1
   37    41    34 1
   38    42     4 1
   39    42    35 1
   40    43    38 1
   41    44     5 1
   42    44    17 1
   43    44    39 1
   44    45    10 1
   45    45    18 1
   46    45    40 1
   47    46    19 1
   48    46    41 1
   49    47    14 1
   50    47    16 1
   51    47    42 1
   52    48    38 1
   53    49    48 1
   54    50    49 1
   55    51    50 1
   56    52    51 1
   57    53    51 1
   58    54    53 1
   59    55    54 1
   60    56    55 1
   61    57    56 1
   62    58    56 1
   63    59    58 1
   64    60    59 1
   65    61    60 1
   66    62    61 1
   67    63    61 1
   68    64    27 1
   69    64    46 1
   70    65     5 1
   71    65    10 1
   72    65    64 1
   73    65    14 1
   74    66    23 1
   75    67    23 1
   76    68    23 1
   77    69    22 1
   78    70    22 1
   79    71    22 1
   80    72    21 1
   81    73    21 1
   82    74    21 1
   83    75    20 1
   84    76    20 1
   85    77    20 1
   86    78    15 1
   87    79    15 1
   88    80    15 1
   89    81     8 1
   90    82     8 1
   91    83     8 1
   92    84     7 1
   93    85     7 1
   94    86     6 1
   95    87     6 1
   96    88     3 1
   97    89     3 1
   98    90     1 1
   99    91     1 1
  100    92    63 1
  101    93    63 1
  102    94    63 1
  103    95    62 1
  104    96    62 1
  105    97    62 1
  106    98    60 1
  107    99    60 1
  108   100    59 1
  109   101    59 1
  110   102    58 1
  111   103    58 1
  112   104    57 1
  113   105    57 1
  114   106    57 1
  115   107    55 1
  116   108    55 1
  117   109    54 1
  118   110    54 1
  119   111    53 1
  120   112    53 1
  121   113    19 1
  122   114    18 1
  123   115    17 1
  124   116     9 1
  125   117     2 1
  126   118    52 1
  127   119    52 1
  128   120    52 1
  129   121    51 1
  130   122    50 1
  131   123    50 1
  132   124    49 1
  133   125    49 1
  134   126    48 1
  135   127    48 1
  136   128    43 1
  137   129    43 1
  138   130    43 1
  139   131    39 1
  140   132    32 1
  141   133    31 1
  142   134    61 1
  143   135    56 1
  144   136    24 1
  145   137    24 1
  146   139   138 1
  147   140   139 1
  148   141   140 1
  149   142   140 1
  150   143   142 1
  151   144   138 1
  152   144   143 1
  153   145   144 1
  154   146   145 1
  155   147   146 1
  156   148   147 1
  157   149   148 1
  158   150   149 1
  159   151   150 1
  160   152   151 1
  161   153   152 1
  162   154   138 1
  163   155   138 1
  164   156   143 1
  165   157   147 1
  166   158   151 1
  167   160   159 1
  168   161   160 1
  169   162   161 1
  170   163   161 1
  171   164   163 1
  172   165   159 1
  173   165   164 1
  174   166   165 1
  175   167   166 1
  176   168   167 1
  177   169   168 1
  178   170   169 1
  179   171   170 1
  180   172   171 1
  181   173   172 1
  182   174   153 1
  183   174   173 1
  184   175   159 1
  185   176   159 1
  186   177   164 1
  187   178   168 1
  188   179   172 1
  189   180   179 1
  190   181   179 1
  191   182   179 1
  192   183   178 1
  193   184   178 1
  194   185   178 1
  195   186   177 1
  196   187   177 1
  197   188   177 1
  198   189   176 1
  199   190   176 1
  200   191   176 1
  201   192   175 1
  202   193   175 1
  203   194   175 1
  204   195   160 1
  205   196   160 1
  206   197   158 1
  207   198   158 1
  208   199   158 1
  209   200   157 1
  210   201   157 1
  211   202   157 1
  212   203   156 1
  213   204   156 1
  214   205   156 1
  215   206   155 1
  216   207   155 1
  217   208   155 1
  218   209   154 1
  219   210   154 1
  220   211   154 1
  221   212   141 1
  222   213   146 1
  223   214   145 1
  224   215   142 1
  225   216   142 1
  226   217   174 1
  227   218   173 1
  228   219   171 1
  229   220   170 1
  230   221   169 1
  231   222   140 1
  232   223   167 1
  233   224   166 1
  234   225   165 1
  235   226   163 1
  236   227   161 1
  237   228   139 1
  238   229   139 1
  239   230   153 1
  240   231   152 1
  241   232   150 1
  242   233   149 1
  243   234   148 1
  244   235   162 1
  245   65    153 1
  246   65    174 1
@<TRIPOS>SUBSTRUCTURE
      1 CLA               1 ****               0 ****  **** 
      2 LUT             138 ****               0 ****  **** 
