@<TRIPOS>MOLECULE
Cpptraj generated mol2 file.
  235   246     2     0     0
SMALL
USER_CHARGES


@<TRIPOS>ATOM
      1 CAA        77.7243   57.9048   34.6909 a2         1 CLA     -0.055900
      2 CAB        77.2068   61.9065   43.7036 c8         1 CLA     -0.148500
      3 CAC        70.8774   56.8304   43.3136 a2         1 CLA     -0.012600
      4 CAD        73.8701   54.7471   36.0606 ck         1 CLA      0.398800
      5 NA         76.5489   58.3858   38.2098 ns         1 CLA     -0.225500
      6 CBA        79.0332   57.7081   33.8477 a2         1 CLA     -0.135000
      7 CBB        77.1531   61.2218   44.8657 c0         1 CLA     -0.395200
      8 CBC        71.2829   55.4125   43.5300 a3         1 CLA     -0.037700
      9 CBD        75.2157   55.5407   35.6970 a1         1 CLA     -0.053900
     10 NB         76.2020   59.8462   40.7157 nm         1 CLA     -0.295700
     11 OBD        73.3864   53.7781   35.4719 o2         1 CLA     -0.494600
     12 CGA        79.7390   56.3061   33.8475 c4         1 CLA      0.827000
     13 CGD        76.2504   54.3895   35.6018 c4         1 CLA      0.655300
     14 ND         73.9127   57.0440   38.8524 nm         1 CLA     -0.291600
     15 CED        77.2306   52.6123   36.8413 a3         1 CLA      0.005400
     16 CHA        75.4031   56.6580   36.8290 cs         1 CLA     -0.123800
     17 CHB        78.0998   60.0336   39.0837 aa         1 CLA     -0.291900
     18 CHC        74.8432   59.9833   42.7084 aa         1 CLA     -0.090400
     19 CHD        72.1792   56.5548   40.5159 aa         1 CLA     -0.052000
     20 CMA        80.0374   58.2071   37.7234 a3         1 CLA     -0.230700
     21 CMB        79.1809   61.9616   41.0978 a3         1 CLA     -0.180800
     22 CMC        72.3336   59.6360   44.5750 a3         1 CLA     -0.134000
     23 CMD        71.4117   54.1953   38.5416 a3         1 CLA     -0.141100
     24 C1         80.7982   54.6074   35.1432 a2         1 CLA      0.023000
     25 C1A        76.5081   57.5802   37.0461 ac         1 CLA     -0.015100
     26 C1B        77.3918   60.3790   40.2917 cr         1 CLA      0.054700
     27 C1C        73.7397   59.1724   42.3995 cn         1 CLA     -0.005600
     28 C1D        72.7654   56.3282   39.2393 ap         1 CLA     -0.047300
     29 O1A        79.6577   55.5095   32.9107 o2         1 CLA     -0.610800
     30 O1D        76.7843   53.9621   34.6138 o2         1 CLA     -0.558200
     31 C2         81.6198   54.4677   36.3695 c8         1 CLA     -0.325100
     32 C2A        77.8607   57.6203   36.2449 a1         1 CLA      0.098600
     33 C2B        77.9120   61.2779   41.2743 cb         1 CLA      0.088500
     34 C2C        72.6057   58.8900   43.2460 cb         1 CLA      0.053700
     35 C2D        72.4649   55.2227   38.3339 cb         1 CLA      0.058900
     36 O2A        80.3511   55.9560   35.0348 o1         1 CLA     -0.437200
     37 O2D        76.4424   53.8298   36.8356 o1         1 CLA     -0.357600
     38 C3         82.6944   53.6642   36.5850 c5         1 CLA      0.031200
     39 C3A        78.6761   58.6763   37.0794 a1         1 CLA      0.166800
     40 C3B        77.0165   61.3024   42.3812 cb         1 CLA      0.035000
     41 C3C        71.9622   57.7467   42.6538 cb         1 CLA     -0.089900
     42 C3D        73.4193   55.3457   37.3301 cb         1 CLA     -0.035900
     43 C4         82.6610   52.1948   37.0808 a3         1 CLA     -0.053300
     44 C4A        77.7412   59.0474   38.1969 ac         1 CLA      0.001800
     45 C4B        75.9577   60.3657   41.9897 cn         1 CLA     -0.020900
     46 C4C        72.5579   57.5609   41.4123 cr         1 CLA     -0.044400
     47 C4D        74.3539   56.4898   37.6889 c6         1 CLA     -0.046000
     48 C5         84.1132   54.0883   36.1908 a2         1 CLA     -0.070400
     49 C6         84.4173   55.5920   36.2912 a2         1 CLA      0.043900
     50 C7         84.4430   56.1855   37.6542 a2         1 CLA     -0.150000
     51 C8         84.6211   57.7070   37.7116 a1         1 CLA      0.064200
     52 C9         85.8726   58.1183   36.8309 a3         1 CLA     -0.259300
     53 C10        84.7773   58.1717   39.2091 a2         1 CLA     -0.071900
     54 C11        83.4949   58.0572   40.0361 a2         1 CLA      0.014500
     55 C12        83.4012   58.8349   41.3219 a2         1 CLA     -0.112100
     56 C13        84.4746   58.4622   42.4178 a1         1 CLA      0.089200
     57 C14        84.2555   56.9785   42.9153 a3         1 CLA     -0.239100
     58 C15        84.4234   59.4878   43.5773 a2         1 CLA     -0.102200
     59 C16        82.9987   59.7694   44.3008 a2         1 CLA      0.023900
     60 C17        83.1171   60.8572   45.3168 a2         1 CLA     -0.105700
     61 C18        81.8224   61.1005   46.1763 a1         1 CLA      0.206800
     62 C19        81.9057   61.8669   47.4952 a3         1 CLA     -0.280100
     63 C20        80.5911   61.6664   45.4561 a3         1 CLA     -0.280100
     64 NC         73.6178   58.3928   41.2463 nx         1 CLA     -0.309200
     65 MG         74.9461   58.5423   39.7049 mg         1 CLA      0.895000
     66 HMD3       71.4894   53.8307   39.5330 dc         1 CLA      0.064300
     67 HMD2       70.4542   54.5788   38.3530 dc         1 CLA      0.064300
     68 HMD1       71.5489   53.3643   37.8280 dc         1 CLA      0.064300
     69 HMC3       73.1649   59.5923   45.2541 dc         1 CLA      0.052100
     70 HMC2       72.1168   60.6698   44.6201 dc         1 CLA      0.052100
     71 HMC1       71.5259   59.1110   45.1106 dc         1 CLA      0.052100
     72 HMB3       79.9828   61.2051   40.8469 dc         1 CLA      0.063600
     73 HMB2       79.1436   62.7162   40.3432 dc         1 CLA      0.063600
     74 HMB1       79.3864   62.3134   42.0755 dc         1 CLA      0.063600
     75 HMA3       80.7564   57.8941   36.9533 dc         1 CLA      0.058300
     76 HMA2       80.6022   58.9534   38.3228 dc         1 CLA      0.058300
     77 HMA1       79.8419   57.3659   38.4029 dc         1 CLA      0.058300
     78 HED3       77.5690   52.1556   37.7697 dc         1 CLA      0.079300
     79 HED2       76.7953   51.8947   36.2877 dc         1 CLA      0.079300
     80 HED1       78.1923   52.7615   36.3770 dc         1 CLA      0.079300
     81 HBC3       71.6126   54.7795   42.6824 dc         1 CLA      0.016300
     82 HBC2       71.9600   55.2637   44.3262 dc         1 CLA      0.016300
     83 HBC1       70.4285   54.8108   43.8791 dc         1 CLA      0.016300
     84 HBB2       77.4726   61.7654   45.8211 da         1 CLA      0.183000
     85 HBB1       77.0927   60.1393   44.8960 da         1 CLA      0.183000
     86 HBA2       78.9182   57.8883   32.7948 dc         1 CLA      0.029400
     87 HBA1       79.7536   58.4210   34.2377 dc         1 CLA      0.029400
     88 HAC2       70.7292   57.1417   44.3520 dc         1 CLA      0.029300
     89 HAC1       69.9449   56.8819   42.8258 dc         1 CLA      0.029300
     90 HAA2       76.9692   57.2687   34.3960 dc         1 CLA      0.028700
     91 HAA1       77.3988   58.8816   34.5764 dc         1 CLA      0.028700
     92 H203       80.0318   60.9781   44.7933 dc         1 CLA      0.065600
     93 H202       79.7504   61.9384   46.1319 dc         1 CLA      0.065600
     94 H201       80.9312   62.5389   44.8463 dc         1 CLA      0.065600
     95 H193       82.0581   62.8881   47.2234 dc         1 CLA      0.065600
     96 H192       81.1106   61.6227   48.2339 dc         1 CLA      0.065600
     97 H191       82.8733   61.5355   47.9186 dc         1 CLA      0.065600
     98 H172       83.9133   60.7452   46.0579 dc         1 CLA      0.027600
     99 H171       83.2990   61.8326   44.7973 dc         1 CLA      0.027600
    100 H162       82.2535   59.9161   43.5245 dc         1 CLA      0.002900
    101 H161       82.6785   58.8388   44.8946 dc         1 CLA      0.002900
    102 H152       85.0625   59.0894   44.3689 dc         1 CLA      0.029100
    103 H151       84.8189   60.4006   43.1327 dc         1 CLA      0.029100
    104 H143       84.8248   56.6756   43.7739 dc         1 CLA      0.063600
    105 H142       83.1848   56.8221   43.0101 dc         1 CLA      0.063600
    106 H141       84.5725   56.2246   42.0631 dc         1 CLA      0.063600
    107 H122       83.2888   59.8553   41.0727 dc         1 CLA      0.032500
    108 H121       82.5378   58.6538   41.8916 dc         1 CLA      0.032500
    109 H112       82.6045   58.4431   39.5036 dc         1 CLA      0.006600
    110 H111       83.3820   57.0110   40.2591 dc         1 CLA      0.006600
    111 H102       85.4911   57.4930   39.7616 dc         1 CLA      0.024100
    112 H101       85.1499   59.2016   39.2268 dc         1 CLA      0.024100
    113 HHD        71.3615   55.8641   40.7374 da         1 CLA      0.174300
    114 HHC        74.7999   60.5569   43.6560 da         1 CLA      0.136800
    115 HHB        79.0397   60.6398   38.9595 da         1 CLA      0.138300
    116 HBD        75.0899   56.0478   34.7344 dc         1 CLA      0.107700
    117 HAB        77.5581   62.9509   43.7540 da         1 CLA      0.155200
    118 H93        86.7245   57.6440   37.2041 dc         1 CLA      0.069500
    119 H92        85.7000   57.9361   35.6996 dc         1 CLA      0.069500
    120 H91        86.1117   59.1512   36.8937 dc         1 CLA      0.069500
    121 H8         83.7070   58.2158   37.3025 dc         1 CLA      0.029300
    122 H72        83.4471   55.9516   38.1923 dc         1 CLA      0.044400
    123 H71        85.3181   55.6360   38.0316 dc         1 CLA      0.044400
    124 H62        85.4669   55.5865   35.9725 dc         1 CLA      0.015600
    125 H61        83.8867   56.1214   35.5901 dc         1 CLA      0.015600
    126 H52        84.9640   53.4534   36.5901 dc         1 CLA      0.033200
    127 H51        84.0330   53.9343   35.0835 dc         1 CLA      0.033200
    128 H43        81.6474   51.9790   37.3652 dc         1 CLA      0.037000
    129 H42        83.0349   51.4440   36.3523 dc         1 CLA      0.037000
    130 H41        83.3596   52.2488   38.0045 dc         1 CLA      0.037000
    131 H3A        78.7962   59.5506   36.4407 dc         1 CLA      0.041100
    132 H2A        78.3200   56.6623   36.4174 dc         1 CLA      0.083100
    133 H2         81.2213   55.0741   37.1722 da         1 CLA      0.180900
    134 H18        81.4971   60.1036   46.5225 dc         1 CLA     -0.003900
    135 H13        85.5056   58.5598   41.9978 dc         1 CLA      0.019700
    136 H12        80.0271   53.8433   34.8989 dc         1 CLA      0.120400
    137 H11        81.6271   54.4202   34.4091 dc         1 CLA      0.120400
    138 C1         68.1223   61.4212   51.0105 Z1         2 LUT      0.509236
    139 C2         66.7971   61.2065   51.7349 Z2         2 LUT     -0.434695
    140 C3         65.8105   62.3996   51.8385 Z3         2 LUT      0.437453
    141 O3         65.7619   62.8882   53.1384 S1         2 LUT     -0.547129
    142 C4         66.0466   63.4978   50.8455 Z4         2 LUT     -0.468603
    143 C5         66.8236   63.1330   49.6161 Z5         2 LUT      0.279246
    144 C6         67.8121   62.1098   49.6923 Z6         2 LUT     -0.305473
    145 C7         68.4286   61.5701   48.4330 Z7         2 LUT      0.069402
    146 C8         69.0537   62.3597   47.4647 Z8         2 LUT     -0.191631
    147 C9         69.4730   61.9129   46.1356 Z9         2 LUT      0.196698
    148 C10        70.3783   62.7660   45.5195 Y1         2 LUT     -0.208611
    149 C11        70.8901   62.8177   44.2215 Y2         2 LUT      0.030784
    150 C12        72.0441   63.5910   43.9184 Y3         2 LUT     -0.220316
    151 C13        72.8480   63.3839   42.7175 Y4         2 LUT      0.215937
    152 C14        73.9809   64.1201   42.6128 Y5         2 LUT     -0.185793
    153 C15        74.9506   64.0119   41.5304 Y6         2 LUT     -0.057835
    154 C16        68.8194   60.0528   50.8989 Y7         2 LUT     -0.405615
    155 C17        68.9096   62.2764   52.0521 Y7         2 LUT     -0.405615
    156 C18        66.2576   63.7814   48.3389 Y9         2 LUT     -0.369639
    157 C19        68.9993   60.5924   45.4764 W1         2 LUT     -0.333362
    158 C20        72.3956   62.5256   41.5718 W2         2 LUT     -0.323439
    159 C21        86.1124   65.0716   35.2813 Z1         2 LUT      0.406104
    160 C22        86.6236   64.2302   34.0629 Z2         2 LUT     -0.404965
    161 C23        86.7057   64.9884   32.7794 Z3         2 LUT      0.391255
    162 O23        86.8423   64.0094   31.6838 S1         2 LUT     -0.528210
    163 C24        85.5165   65.9738   32.5586 W6         2 LUT     -0.258361
    164 C25        84.6542   66.2699   33.5162 Z5         2 LUT      0.133546
    165 C26        84.6931   65.5758   34.8863 W8         2 LUT     -0.147008
    166 C27        84.0131   66.2541   35.9986 Z7         2 LUT      0.023843
    167 C28        82.7599   66.1672   36.4119 Z8         2 LUT     -0.216987
    168 C29        82.1134   66.5880   37.6685 Z9         2 LUT      0.206524
    169 C30        81.1247   65.7802   38.1437 Y1         2 LUT     -0.215556
    170 C31        80.1918   66.0286   39.2022 Y2         2 LUT      0.025142
    171 C32        79.0490   65.3335   39.3739 Y3         2 LUT     -0.212209
    172 C33        78.2824   65.3190   40.6034 Y4         2 LUT      0.240937
    173 C34        77.0900   64.6148   40.6024 Y5         2 LUT     -0.218862
    174 C35        76.1297   64.6095   41.6806 Y6         2 LUT     -0.023547
    175 C36        87.0780   66.2709   35.5500 Y7         2 LUT     -0.393485
    176 C37        86.2910   64.1003   36.4587 Y7         2 LUT     -0.393485
    177 C38        83.3823   67.0747   33.1911 Y9         2 LUT     -0.387526
    178 C39        82.5404   67.9941   38.1431 W1         2 LUT     -0.322618
    179 C40        78.8549   66.0126   41.8198 W2         2 LUT     -0.358472
    180 H403       78.4164   65.7127   42.7813 R7         2 LUT      0.097720
    181 H402       79.8456   65.7380   41.9723 R7         2 LUT      0.097720
    182 H401       78.8611   67.0900   41.6639 R7         2 LUT      0.097720
    183 H393       83.4148   67.9839   38.7652 R4         2 LUT      0.082505
    184 H392       82.7383   68.7010   37.3206 R4         2 LUT      0.082505
    185 H391       81.7965   68.5101   38.6681 R4         2 LUT      0.082505
    186 H383       83.4569   68.0576   33.5875 R1         2 LUT      0.104030
    187 H382       83.2815   67.2003   32.1261 R1         2 LUT      0.104030
    188 H381       82.5043   66.5887   33.6292 R1         2 LUT      0.104030
    189 H373       87.2620   63.8389   36.8915 T4         2 LUT      0.089537
    190 H372       85.7550   64.4205   37.3558 T4         2 LUT      0.089537
    191 H371       85.7781   63.1880   36.3349 T4         2 LUT      0.089537
    192 H363       87.1200   67.0302   34.7452 T4         2 LUT      0.089537
    193 H362       86.8435   66.7518   36.4570 T4         2 LUT      0.089537
    194 H361       88.0909   65.9290   35.6100 T4         2 LUT      0.089537
    195 H222       87.6909   64.0244   34.0761 U2         2 LUT      0.127376
    196 H221       86.0409   63.3535   33.9248 U2         2 LUT      0.127376
    197 H203       72.3975   61.5920   42.0020 R7         2 LUT      0.087068
    198 H202       71.4629   62.6192   41.1299 R7         2 LUT      0.087068
    199 H201       73.0937   62.3215   40.7227 R7         2 LUT      0.087068
    200 H193       69.0969   60.5839   44.3545 R4         2 LUT      0.089716
    201 H192       69.6527   59.7667   45.6973 R4         2 LUT      0.089716
    202 H191       67.9335   60.3499   45.5864 R4         2 LUT      0.089716
    203 H183       66.0680   62.9910   47.6218 R1         2 LUT      0.094572
    204 H182       65.3635   64.4446   48.4276 R1         2 LUT      0.094572
    205 H181       67.0365   64.4832   47.9521 R1         2 LUT      0.094572
    206 H173       69.1563   61.7258   52.9753 T4         2 LUT      0.093752
    207 H172       69.9039   62.5979   51.5922 T4         2 LUT      0.093752
    208 H171       68.3493   63.1221   52.3631 T4         2 LUT      0.093752
    209 H163       68.7898   59.5614   51.8998 T4         2 LUT      0.093752
    210 H162       68.3673   59.3602   50.0606 T4         2 LUT      0.093752
    211 H161       69.8727   60.2006   50.8494 T4         2 LUT      0.093752
    212 HO3        65.4011   62.3676   53.8347 Q1         2 LUT      0.300121
    213 H8         69.1536   63.4245   47.6426 U7         2 LUT      0.080784
    214 H7         68.2079   60.5476   48.2762 U6         2 LUT      0.042190
    215 H42        65.0097   63.7807   50.4368 U5         2 LUT      0.145166
    216 H41        66.5586   64.3097   51.3138 U5         2 LUT      0.145166
    217 H35        76.3255   65.1482   42.6393 T3         2 LUT      0.077919
    218 H34        76.8230   63.9549   39.7275 T2         2 LUT      0.073626
    219 H32        78.6808   64.6794   38.6476 T1         2 LUT      0.092510
    220 H31        80.4994   66.7433   39.8878 U9         2 LUT      0.070048
    221 H30        80.9252   64.9385   37.5141 U8         2 LUT      0.085442
    222 H3         64.8434   62.0502   51.4718 U3         2 LUT     -0.031596
    223 H28        82.1678   65.6258   35.7450 U7         2 LUT      0.084728
    224 H27        84.6126   66.9006   36.6402 U6         2 LUT      0.087291
    225 H26        83.9499   64.6993   34.8169 Q6         2 LUT      0.075325
    226 H24        85.4409   66.4570   31.6004 Q5         2 LUT      0.094482
    227 H23        87.5672   65.6194   32.9512 U3         2 LUT     -0.024869
    228 H22        66.2462   60.4057   51.2997 U2         2 LUT      0.127376
    229 H21        66.9335   60.7421   52.7116 U2         2 LUT      0.127376
    230 H15        74.7078   63.6004   40.5387 T3         2 LUT      0.093200
    231 H14        74.1534   64.8288   43.4223 T2         2 LUT      0.068865
    232 H12        72.4121   64.2717   44.6767 T1         2 LUT      0.095507
    233 H11        70.5001   62.1461   43.5228 U9         2 LUT      0.068930
    234 H10        70.7739   63.5516   46.1411 U8         2 LUT      0.083911
    235 H1         87.2738   64.5317   30.9683 Q1         2 LUT      0.297311
@<TRIPOS>BOND
    1     6     1 1
    2     7     2 1
    3     8     3 1
    4     9     4 1
    5    11     4 1
    6    12     6 1
    7    13     9 1
    8    16     9 1
    9    25     5 1
   10    25    16 1
   11    26    10 1
   12    26    17 1
   13    27    18 1
   14    28    14 1
   15    28    19 1
   16    29    12 1
   17    30    13 1
   18    31    24 1
   19    32     1 1
   20    32    25 1
   21    33    21 1
   22    33    26 1
   23    34    22 1
   24    34    27 1
   25    35    23 1
   26    35    28 1
   27    36    12 1
   28    36    24 1
   29    37    13 1
   30    37    15 1
   31    38    31 1
   32    39    20 1
   33    39    32 1
   34    40     2 1
   35    40    33 1
   36    41     3 1
   37    41    34 1
   38    42     4 1
   39    42    35 1
   40    43    38 1
   41    44     5 1
   42    44    17 1
   43    44    39 1
   44    45    10 1
   45    45    18 1
   46    45    40 1
   47    46    19 1
   48    46    41 1
   49    47    14 1
   50    47    16 1
   51    47    42 1
   52    48    38 1
   53    49    48 1
   54    50    49 1
   55    51    50 1
   56    52    51 1
   57    53    51 1
   58    54    53 1
   59    55    54 1
   60    56    55 1
   61    57    56 1
   62    58    56 1
   63    59    58 1
   64    60    59 1
   65    61    60 1
   66    62    61 1
   67    63    61 1
   68    64    27 1
   69    64    46 1
   70    65     5 1
   71    65    10 1
   72    65    64 1
   73    65    14 1
   74    66    23 1
   75    67    23 1
   76    68    23 1
   77    69    22 1
   78    70    22 1
   79    71    22 1
   80    72    21 1
   81    73    21 1
   82    74    21 1
   83    75    20 1
   84    76    20 1
   85    77    20 1
   86    78    15 1
   87    79    15 1
   88    80    15 1
   89    81     8 1
   90    82     8 1
   91    83     8 1
   92    84     7 1
   93    85     7 1
   94    86     6 1
   95    87     6 1
   96    88     3 1
   97    89     3 1
   98    90     1 1
   99    91     1 1
  100    92    63 1
  101    93    63 1
  102    94    63 1
  103    95    62 1
  104    96    62 1
  105    97    62 1
  106    98    60 1
  107    99    60 1
  108   100    59 1
  109   101    59 1
  110   102    58 1
  111   103    58 1
  112   104    57 1
  113   105    57 1
  114   106    57 1
  115   107    55 1
  116   108    55 1
  117   109    54 1
  118   110    54 1
  119   111    53 1
  120   112    53 1
  121   113    19 1
  122   114    18 1
  123   115    17 1
  124   116     9 1
  125   117     2 1
  126   118    52 1
  127   119    52 1
  128   120    52 1
  129   121    51 1
  130   122    50 1
  131   123    50 1
  132   124    49 1
  133   125    49 1
  134   126    48 1
  135   127    48 1
  136   128    43 1
  137   129    43 1
  138   130    43 1
  139   131    39 1
  140   132    32 1
  141   133    31 1
  142   134    61 1
  143   135    56 1
  144   136    24 1
  145   137    24 1
  146   139   138 1
  147   140   139 1
  148   141   140 1
  149   142   140 1
  150   143   142 1
  151   144   138 1
  152   144   143 1
  153   145   144 1
  154   146   145 1
  155   147   146 1
  156   148   147 1
  157   149   148 1
  158   150   149 1
  159   151   150 1
  160   152   151 1
  161   153   152 1
  162   154   138 1
  163   155   138 1
  164   156   143 1
  165   157   147 1
  166   158   151 1
  167   160   159 1
  168   161   160 1
  169   162   161 1
  170   163   161 1
  171   164   163 1
  172   165   159 1
  173   165   164 1
  174   166   165 1
  175   167   166 1
  176   168   167 1
  177   169   168 1
  178   170   169 1
  179   171   170 1
  180   172   171 1
  181   173   172 1
  182   174   153 1
  183   174   173 1
  184   175   159 1
  185   176   159 1
  186   177   164 1
  187   178   168 1
  188   179   172 1
  189   180   179 1
  190   181   179 1
  191   182   179 1
  192   183   178 1
  193   184   178 1
  194   185   178 1
  195   186   177 1
  196   187   177 1
  197   188   177 1
  198   189   176 1
  199   190   176 1
  200   191   176 1
  201   192   175 1
  202   193   175 1
  203   194   175 1
  204   195   160 1
  205   196   160 1
  206   197   158 1
  207   198   158 1
  208   199   158 1
  209   200   157 1
  210   201   157 1
  211   202   157 1
  212   203   156 1
  213   204   156 1
  214   205   156 1
  215   206   155 1
  216   207   155 1
  217   208   155 1
  218   209   154 1
  219   210   154 1
  220   211   154 1
  221   212   141 1
  222   213   146 1
  223   214   145 1
  224   215   142 1
  225   216   142 1
  226   217   174 1
  227   218   173 1
  228   219   171 1
  229   220   170 1
  230   221   169 1
  231   222   140 1
  232   223   167 1
  233   224   166 1
  234   225   165 1
  235   226   163 1
  236   227   161 1
  237   228   139 1
  238   229   139 1
  239   230   153 1
  240   231   152 1
  241   232   150 1
  242   233   149 1
  243   234   148 1
  244   235   162 1
  245   65    153 1
  246   65    174 1
@<TRIPOS>SUBSTRUCTURE
      1 CLA               1 ****               0 ****  **** 
      2 LUT             138 ****               0 ****  **** 
