@<TRIPOS>MOLECULE
Cpptraj generated mol2 file.
  235   246     2     0     0
SMALL
USER_CHARGES


@<TRIPOS>ATOM
      1 CAA        76.9318   57.7721   35.3968 a2         1 CLA     -0.055900
      2 CAB        76.6108   61.9964   44.2018 c8         1 CLA     -0.148500
      3 CAC        69.6713   57.7101   43.6567 a2         1 CLA     -0.012600
      4 CAD        72.8624   54.8890   36.8252 ck         1 CLA      0.398800
      5 NA         75.7562   58.2588   38.7034 ns         1 CLA     -0.225500
      6 CBA        78.2149   57.6411   34.5293 a2         1 CLA     -0.135000
      7 CBB        77.7628   61.9662   44.9435 c0         1 CLA     -0.395200
      8 CBC        69.6032   56.2098   43.6394 a3         1 CLA     -0.037700
      9 CBD        74.3603   55.3464   36.5520 a1         1 CLA     -0.053900
     10 NB         75.4469   60.0118   41.2300 nm         1 CLA     -0.295700
     11 OBD        72.3038   54.0819   36.1310 o2         1 CLA     -0.494600
     12 CGA        78.6161   56.2822   33.9749 c4         1 CLA      0.827000
     13 CGD        75.2685   54.1876   36.7190 c4         1 CLA      0.655300
     14 ND         72.8978   57.4263   39.2155 nm         1 CLA     -0.291600
     15 CED        75.7794   52.2365   38.0485 a3         1 CLA      0.005400
     16 CHA        74.5450   56.5957   37.4616 cs         1 CLA     -0.123800
     17 CHB        77.4817   59.7956   39.6971 aa         1 CLA     -0.291900
     18 CHC        74.1464   60.2769   43.3076 aa         1 CLA     -0.090400
     19 CHD        71.0390   57.3516   40.7749 aa         1 CLA     -0.052000
     20 CMA        79.2769   57.6030   38.1619 a3         1 CLA     -0.230700
     21 CMB        78.7943   61.8797   41.6830 a3         1 CLA     -0.180800
     22 CMC        71.9616   59.3503   45.3524 a3         1 CLA     -0.134000
     23 CMD        69.8733   55.3342   38.4582 a3         1 CLA     -0.141100
     24 C1         79.6448   54.2256   34.6117 a2         1 CLA      0.023000
     25 C1A        75.7001   57.3972   37.6182 ac         1 CLA     -0.015100
     26 C1B        76.7805   60.4081   40.7951 cr         1 CLA      0.054700
     27 C1C        73.0130   59.5043   42.9501 cn         1 CLA     -0.005600
     28 C1D        71.6755   56.9096   39.5539 ap         1 CLA     -0.047300
     29 O1A        78.7816   56.0172   32.7730 o2         1 CLA     -0.610800
     30 O1D        76.2323   53.9286   36.0406 o2         1 CLA     -0.558200
     31 C2         79.6276   53.2390   35.8633 c8         1 CLA     -0.325100
     32 C2A        77.0670   57.3306   36.8309 a1         1 CLA      0.098600
     33 C2B        77.3785   61.2681   41.8485 cb         1 CLA      0.088500
     34 C2C        71.9861   59.0661   43.8845 cb         1 CLA      0.053700
     35 C2D        71.2280   56.0045   38.5800 cb         1 CLA      0.058900
     36 O2A        78.8374   55.3893   34.9713 o1         1 CLA     -0.437200
     37 O2D        74.9083   53.4253   37.8084 o1         1 CLA     -0.357600
     38 C3         80.6336   52.8667   36.6653 c5         1 CLA      0.031200
     39 C3A        77.9667   58.2892   37.6592 a1         1 CLA      0.166800
     40 C3B        76.4501   61.2918   42.8987 cb         1 CLA      0.035000
     41 C3C        71.0168   58.3334   43.1437 cb         1 CLA     -0.089900
     42 C3D        72.3287   55.7163   37.8386 cb         1 CLA     -0.035900
     43 C4         81.4259   51.6465   36.3471 a3         1 CLA     -0.053300
     44 C4A        77.0372   58.8801   38.7225 ac         1 CLA      0.001800
     45 C4B        75.2824   60.5506   42.4859 cn         1 CLA     -0.020900
     46 C4C        71.5948   58.1882   41.8115 cr         1 CLA     -0.044400
     47 C4D        73.3107   56.6911   38.1939 c6         1 CLA     -0.046000
     48 C5         81.0544   53.5847   38.0136 a2         1 CLA     -0.070400
     49 C6         82.0807   54.7209   37.7201 a2         1 CLA      0.043900
     50 C7         82.6041   55.2596   39.0022 a2         1 CLA     -0.150000
     51 C8         83.3233   56.6561   38.8782 a1         1 CLA      0.064200
     52 C9         84.4316   56.6877   37.7973 a3         1 CLA     -0.259300
     53 C10        83.8390   57.1661   40.2410 a2         1 CLA     -0.071900
     54 C11        82.7590   57.3352   41.3068 a2         1 CLA      0.014500
     55 C12        83.1486   58.1284   42.6031 a2         1 CLA     -0.112100
     56 C13        84.0690   57.4529   43.7079 a1         1 CLA      0.089200
     57 C14        83.2990   56.2753   44.4455 a3         1 CLA     -0.239100
     58 C15        84.6618   58.5199   44.6327 a2         1 CLA     -0.102200
     59 C16        83.5684   59.0333   45.5255 a2         1 CLA      0.023900
     60 C17        84.1450   60.1637   46.4446 a2         1 CLA     -0.105700
     61 C18        83.4619   60.3536   47.8742 a1         1 CLA      0.206800
     62 C19        84.2095   61.2489   48.9008 a3         1 CLA     -0.280100
     63 C20        82.0370   60.7533   47.6644 a3         1 CLA     -0.280100
     64 NC         72.7567   58.9147   41.6854 nx         1 CLA     -0.309200
     65 MG         74.1863   58.8836   40.0452 mg         1 CLA      0.895000
     66 HMD3       69.2857   55.3406   39.3738 dc         1 CLA      0.064300
     67 HMD2       69.2206   55.7952   37.7035 dc         1 CLA      0.064300
     68 HMD1       70.0288   54.2709   38.2549 dc         1 CLA      0.064300
     69 HMC3       71.4168   58.4890   45.7287 dc         1 CLA      0.052100
     70 HMC2       72.9065   59.3763   45.8001 dc         1 CLA      0.052100
     71 HMC1       71.4339   60.2560   45.5727 dc         1 CLA      0.052100
     72 HMB3       78.8049   62.7887   42.3129 dc         1 CLA      0.063600
     73 HMB2       79.6154   61.1939   41.9386 dc         1 CLA      0.063600
     74 HMB1       78.9893   62.1693   40.6257 dc         1 CLA      0.063600
     75 HMA3       79.8575   57.3234   37.2542 dc         1 CLA      0.058300
     76 HMA2       79.7856   58.1450   38.9118 dc         1 CLA      0.058300
     77 HMA1       78.9330   56.6916   38.6268 dc         1 CLA      0.058300
     78 HED3       75.4396   51.3231   37.6150 dc         1 CLA      0.079300
     79 HED2       76.8116   52.5314   37.8233 dc         1 CLA      0.079300
     80 HED1       75.7551   52.0168   39.0752 dc         1 CLA      0.079300
     81 HBC3       70.4274   55.8055   44.2714 dc         1 CLA      0.016300
     82 HBC2       68.5605   56.0710   43.9957 dc         1 CLA      0.016300
     83 HBC1       69.6226   55.7175   42.7482 dc         1 CLA      0.016300
     84 HBB2       77.8741   62.5171   45.8907 da         1 CLA      0.183000
     85 HBB1       78.7206   61.5559   44.5940 da         1 CLA      0.183000
     86 HBA2       78.3402   58.4319   33.8540 dc         1 CLA      0.029400
     87 HBA1       79.0344   57.8010   35.1935 dc         1 CLA      0.029400
     88 HAC2       69.5767   58.0013   44.7124 dc         1 CLA      0.029300
     89 HAC1       68.7956   58.1738   43.1621 dc         1 CLA      0.029300
     90 HAA2       76.2394   57.1436   34.9126 dc         1 CLA      0.028700
     91 HAA1       76.5294   58.7716   35.4044 dc         1 CLA      0.028700
     92 H203       81.5443   60.7496   48.6650 dc         1 CLA      0.065600
     93 H202       82.0460   61.7373   47.3120 dc         1 CLA      0.065600
     94 H201       81.5028   60.1245   47.0654 dc         1 CLA      0.065600
     95 H193       84.1780   62.2490   48.5020 dc         1 CLA      0.065600
     96 H192       83.7214   61.1338   49.8687 dc         1 CLA      0.065600
     97 H191       85.2514   60.8891   48.9818 dc         1 CLA      0.065600
     98 H172       85.1953   59.8794   46.6783 dc         1 CLA      0.027600
     99 H171       84.1455   61.1110   45.9531 dc         1 CLA      0.027600
    100 H162       82.8150   59.5029   44.8623 dc         1 CLA      0.002900
    101 H161       83.1360   58.2261   46.1044 dc         1 CLA      0.002900
    102 H152       85.4598   57.9965   45.1313 dc         1 CLA      0.029100
    103 H151       85.0467   59.3951   44.1010 dc         1 CLA      0.029100
    104 H143       82.4448   56.6843   44.9405 dc         1 CLA      0.063600
    105 H142       83.0784   55.4349   43.8146 dc         1 CLA      0.063600
    106 H141       84.0532   55.9827   45.1554 dc         1 CLA      0.063600
    107 H122       83.6271   59.0592   42.2443 dc         1 CLA      0.032500
    108 H121       82.2658   58.4874   43.0838 dc         1 CLA      0.032500
    109 H112       82.0228   58.0568   40.8523 dc         1 CLA      0.006600
    110 H111       82.2159   56.4232   41.5869 dc         1 CLA      0.006600
    111 H102       84.7214   56.5477   40.4994 dc         1 CLA      0.024100
    112 H101       84.2081   58.1407   40.0302 dc         1 CLA      0.024100
    113 HHD        69.9583   57.0260   40.9268 da         1 CLA      0.174300
    114 HHC        74.1598   60.7147   44.2648 da         1 CLA      0.136800
    115 HHB        78.4415   60.1669   39.5047 da         1 CLA      0.138300
    116 HBD        74.5160   55.5785   35.5560 dc         1 CLA      0.107700
    117 HAB        75.6782   62.3420   44.6381 da         1 CLA      0.155200
    118 H93        85.2940   56.0336   38.0406 dc         1 CLA      0.069500
    119 H92        83.9232   56.3575   36.8938 dc         1 CLA      0.069500
    120 H91        84.8540   57.6895   37.6465 dc         1 CLA      0.069500
    121 H8         82.5945   57.3735   38.5748 dc         1 CLA      0.029300
    122 H72        81.7767   55.3635   39.7263 dc         1 CLA      0.044400
    123 H71        83.3605   54.5324   39.3319 dc         1 CLA      0.044400
    124 H62        82.9037   54.3642   37.1535 dc         1 CLA      0.015600
    125 H61        81.7164   55.6067   37.1123 dc         1 CLA      0.015600
    126 H52        80.1778   54.0986   38.3827 dc         1 CLA      0.033200
    127 H51        81.4636   52.8908   38.8087 dc         1 CLA      0.033200
    128 H43        81.5332   50.9527   37.1198 dc         1 CLA      0.037000
    129 H42        80.8733   51.0865   35.5640 dc         1 CLA      0.037000
    130 H41        82.3717   52.0490   35.9937 dc         1 CLA      0.037000
    131 H3A        78.3363   59.1396   37.0301 dc         1 CLA      0.041100
    132 H2A        77.5160   56.2717   36.9469 dc         1 CLA      0.083100
    133 H2         78.6069   52.9691   36.1429 da         1 CLA      0.180900
    134 H18        83.3695   59.3561   48.2687 dc         1 CLA     -0.003900
    135 H13        84.9006   56.9569   43.1310 dc         1 CLA      0.019700
    136 H12        79.2302   53.6888   33.7540 dc         1 CLA      0.120400
    137 H11        80.7390   54.4224   34.4305 dc         1 CLA      0.120400
    138 C1         66.4810   61.0791   50.7547 Z1         2 LUT      0.509236
    139 C2         65.0488   61.1029   51.3172 Z2         2 LUT     -0.434695
    140 C3         64.3594   62.3713   51.7179 Z3         2 LUT      0.437453
    141 O3         64.4914   62.6901   53.1437 S1         2 LUT     -0.547129
    142 C4         64.9549   63.5136   50.9807 Z4         2 LUT     -0.468603
    143 C5         65.6912   63.2346   49.6867 Z5         2 LUT      0.279246
    144 C6         66.4344   62.0996   49.5748 Z6         2 LUT     -0.305473
    145 C7         66.7860   61.5555   48.2050 Z7         2 LUT      0.069402
    146 C8         67.7737   62.2043   47.3901 Z8         2 LUT     -0.191631
    147 C9         68.4136   61.7634   46.1498 Z9         2 LUT      0.196698
    148 C10        69.3008   62.5211   45.4031 Y1         2 LUT     -0.208611
    149 C11        69.9787   62.2743   44.0997 Y2         2 LUT      0.030784
    150 C12        71.0075   63.1604   43.8263 Y3         2 LUT     -0.220316
    151 C13        72.0183   63.0570   42.8272 Y4         2 LUT      0.215937
    152 C14        73.1109   63.9198   42.9267 Y5         2 LUT     -0.185793
    153 C15        74.2507   64.0713   42.0617 Y6         2 LUT     -0.057835
    154 C16        66.8349   59.5993   50.3382 Y7         2 LUT     -0.405615
    155 C17        67.4402   61.4763   51.7851 Y7         2 LUT     -0.405615
    156 C18        65.2557   64.0690   48.5679 Y9         2 LUT     -0.369639
    157 C19        67.9491   60.4334   45.7059 W1         2 LUT     -0.333362
    158 C20        71.7154   62.2411   41.6294 W2         2 LUT     -0.323439
    159 C21        85.8056   64.7333   36.4758 Z1         2 LUT      0.406104
    160 C22        86.5176   64.2676   35.1983 Z2         2 LUT     -0.404965
    161 C23        86.5615   65.1574   33.9348 Z3         2 LUT      0.391255
    162 O23        86.9386   64.3325   32.8453 S1         2 LUT     -0.528210
    163 C24        85.2465   65.8582   33.8227 W6         2 LUT     -0.258361
    164 C25        84.1907   65.7532   34.6390 Z5         2 LUT      0.133546
    165 C26        84.2890   65.0468   36.0599 W8         2 LUT     -0.147008
    166 C27        83.5713   65.8038   37.1842 Z7         2 LUT      0.023843
    167 C28        82.3341   65.6442   37.7113 Z8         2 LUT     -0.216987
    168 C29        81.6202   66.2526   38.8466 Z9         2 LUT      0.206524
    169 C30        80.5666   65.6593   39.3911 Y1         2 LUT     -0.215556
    170 C31        79.7194   66.0950   40.4437 Y2         2 LUT      0.025142
    171 C32        78.4933   65.4728   40.5094 Y3         2 LUT     -0.212209
    172 C33        77.5868   65.7219   41.5108 Y4         2 LUT      0.240937
    173 C34        76.5424   64.7385   41.5347 Y5         2 LUT     -0.218862
    174 C35        75.4478   64.6932   42.4411 Y6         2 LUT     -0.023547
    175 C36        86.6617   65.8646   37.0559 Y7         2 LUT     -0.393485
    176 C37        85.8757   63.5191   37.4509 Y7         2 LUT     -0.393485
    177 C38        82.8357   66.3766   34.1598 Y9         2 LUT     -0.387526
    178 C39        82.1556   67.5855   39.3123 W1         2 LUT     -0.322618
    179 C40        77.8398   66.5920   42.7406 W2         2 LUT     -0.358472
    180 H403       77.0373   66.6687   43.4962 R7         2 LUT      0.097720
    181 H402       78.7236   66.2197   43.2682 R7         2 LUT      0.097720
    182 H401       77.9866   67.6259   42.4379 R7         2 LUT      0.097720
    183 H393       81.4764   68.1463   40.0292 R4         2 LUT      0.082505
    184 H392       83.0845   67.3959   39.8616 R4         2 LUT      0.082505
    185 H391       82.2842   68.3186   38.5131 R4         2 LUT      0.082505
    186 H383       82.9223   67.3125   33.6331 R1         2 LUT      0.104030
    187 H382       82.2366   65.6307   33.5388 R1         2 LUT      0.104030
    188 H381       82.2674   66.5119   35.0184 R1         2 LUT      0.104030
    189 H373       85.5194   63.8376   38.4755 T4         2 LUT      0.089537
    190 H372       85.2193   62.7649   36.9470 T4         2 LUT      0.089537
    191 H371       86.8387   63.0355   37.7390 T4         2 LUT      0.089537
    192 H363       86.6560   66.7696   36.4372 T4         2 LUT      0.089537
    193 H362       86.3214   66.1597   38.0332 T4         2 LUT      0.089537
    194 H361       87.7409   65.5949   36.9976 T4         2 LUT      0.089537
    195 H222       87.5309   63.8256   35.3916 U2         2 LUT      0.127376
    196 H221       85.9498   63.3682   34.8624 U2         2 LUT      0.127376
    197 H203       72.5961   62.1652   40.8744 R7         2 LUT      0.087068
    198 H202       71.2242   61.2760   41.6231 R7         2 LUT      0.087068
    199 H201       71.0796   62.8589   41.0809 R7         2 LUT      0.087068
    200 H193       66.9122   60.3368   45.5254 R4         2 LUT      0.089716
    201 H192       68.4038   60.2041   44.7279 R4         2 LUT      0.089716
    202 H191       68.2790   59.6586   46.3941 R4         2 LUT      0.089716
    203 H183       65.6530   63.8172   47.5871 R1         2 LUT      0.094572
    204 H182       64.1765   63.9304   48.4923 R1         2 LUT      0.094572
    205 H181       65.5245   65.1247   48.9129 R1         2 LUT      0.094572
    206 H173       67.2863   60.8461   52.6949 T4         2 LUT      0.093752
    207 H172       68.4838   61.5089   51.4173 T4         2 LUT      0.093752
    208 H171       67.3123   62.4642   52.1763 T4         2 LUT      0.093752
    209 H163       66.7845   58.8232   51.0758 T4         2 LUT      0.093752
    210 H162       66.1452   59.2096   49.5795 T4         2 LUT      0.093752
    211 H161       67.7948   59.6101   49.8989 T4         2 LUT      0.093752
    212 HO3        64.2208   61.9805   53.7041 Q1         2 LUT      0.300121
    213 H8         68.1204   63.1811   47.7729 U7         2 LUT      0.080784
    214 H7         66.4210   60.6020   47.8744 U6         2 LUT      0.042190
    215 H42        64.2454   64.3443   50.8305 U5         2 LUT      0.145166
    216 H41        65.7766   63.9164   51.6876 U5         2 LUT      0.145166
    217 H35        75.5013   65.1996   43.4513 T3         2 LUT      0.077919
    218 H34        76.5679   63.9502   40.7156 T2         2 LUT      0.073626
    219 H32        78.3213   64.6144   39.8789 T1         2 LUT      0.092510
    220 H31        80.0534   66.7110   41.2161 U9         2 LUT      0.070048
    221 H30        80.2533   64.7618   38.8456 U8         2 LUT      0.085442
    222 H3         63.3092   62.2390   51.4863 U3         2 LUT     -0.031596
    223 H28        81.7487   64.9005   37.1963 U7         2 LUT      0.084728
    224 H27        84.1186   66.5175   37.7831 U6         2 LUT      0.087291
    225 H26        83.8668   64.0516   35.9331 Q6         2 LUT      0.075325
    226 H24        84.9913   66.3380   32.8588 Q5         2 LUT      0.094482
    227 H23        87.1737   66.0186   34.1138 U3         2 LUT     -0.024869
    228 H22        64.4168   60.6796   50.5933 U2         2 LUT      0.127376
    229 H21        64.8962   60.3427   52.0221 U2         2 LUT      0.127376
    230 H15        74.3550   63.5708   41.1252 T3         2 LUT      0.093200
    231 H14        73.1152   64.4935   43.8033 T2         2 LUT      0.068865
    232 H12        71.1602   63.9120   44.6402 T1         2 LUT      0.095507
    233 H11        69.7724   61.4520   43.4368 U9         2 LUT      0.068930
    234 H10        69.4845   63.4887   45.8979 U8         2 LUT      0.083911
    235 H1         87.3353   64.8897   32.1227 Q1         2 LUT      0.297311
@<TRIPOS>BOND
    1     6     1 1
    2     7     2 1
    3     8     3 1
    4     9     4 1
    5    11     4 1
    6    12     6 1
    7    13     9 1
    8    16     9 1
    9    25     5 1
   10    25    16 1
   11    26    10 1
   12    26    17 1
   13    27    18 1
   14    28    14 1
   15    28    19 1
   16    29    12 1
   17    30    13 1
   18    31    24 1
   19    32     1 1
   20    32    25 1
   21    33    21 1
   22    33    26 1
   23    34    22 1
   24    34    27 1
   25    35    23 1
   26    35    28 1
   27    36    12 1
   28    36    24 1
   29    37    13 1
   30    37    15 1
   31    38    31 1
   32    39    20 1
   33    39    32 1
   34    40     2 1
   35    40    33 1
   36    41     3 1
   37    41    34 1
   38    42     4 1
   39    42    35 1
   40    43    38 1
   41    44     5 1
   42    44    17 1
   43    44    39 1
   44    45    10 1
   45    45    18 1
   46    45    40 1
   47    46    19 1
   48    46    41 1
   49    47    14 1
   50    47    16 1
   51    47    42 1
   52    48    38 1
   53    49    48 1
   54    50    49 1
   55    51    50 1
   56    52    51 1
   57    53    51 1
   58    54    53 1
   59    55    54 1
   60    56    55 1
   61    57    56 1
   62    58    56 1
   63    59    58 1
   64    60    59 1
   65    61    60 1
   66    62    61 1
   67    63    61 1
   68    64    27 1
   69    64    46 1
   70    65     5 1
   71    65    10 1
   72    65    64 1
   73    65    14 1
   74    66    23 1
   75    67    23 1
   76    68    23 1
   77    69    22 1
   78    70    22 1
   79    71    22 1
   80    72    21 1
   81    73    21 1
   82    74    21 1
   83    75    20 1
   84    76    20 1
   85    77    20 1
   86    78    15 1
   87    79    15 1
   88    80    15 1
   89    81     8 1
   90    82     8 1
   91    83     8 1
   92    84     7 1
   93    85     7 1
   94    86     6 1
   95    87     6 1
   96    88     3 1
   97    89     3 1
   98    90     1 1
   99    91     1 1
  100    92    63 1
  101    93    63 1
  102    94    63 1
  103    95    62 1
  104    96    62 1
  105    97    62 1
  106    98    60 1
  107    99    60 1
  108   100    59 1
  109   101    59 1
  110   102    58 1
  111   103    58 1
  112   104    57 1
  113   105    57 1
  114   106    57 1
  115   107    55 1
  116   108    55 1
  117   109    54 1
  118   110    54 1
  119   111    53 1
  120   112    53 1
  121   113    19 1
  122   114    18 1
  123   115    17 1
  124   116     9 1
  125   117     2 1
  126   118    52 1
  127   119    52 1
  128   120    52 1
  129   121    51 1
  130   122    50 1
  131   123    50 1
  132   124    49 1
  133   125    49 1
  134   126    48 1
  135   127    48 1
  136   128    43 1
  137   129    43 1
  138   130    43 1
  139   131    39 1
  140   132    32 1
  141   133    31 1
  142   134    61 1
  143   135    56 1
  144   136    24 1
  145   137    24 1
  146   139   138 1
  147   140   139 1
  148   141   140 1
  149   142   140 1
  150   143   142 1
  151   144   138 1
  152   144   143 1
  153   145   144 1
  154   146   145 1
  155   147   146 1
  156   148   147 1
  157   149   148 1
  158   150   149 1
  159   151   150 1
  160   152   151 1
  161   153   152 1
  162   154   138 1
  163   155   138 1
  164   156   143 1
  165   157   147 1
  166   158   151 1
  167   160   159 1
  168   161   160 1
  169   162   161 1
  170   163   161 1
  171   164   163 1
  172   165   159 1
  173   165   164 1
  174   166   165 1
  175   167   166 1
  176   168   167 1
  177   169   168 1
  178   170   169 1
  179   171   170 1
  180   172   171 1
  181   173   172 1
  182   174   153 1
  183   174   173 1
  184   175   159 1
  185   176   159 1
  186   177   164 1
  187   178   168 1
  188   179   172 1
  189   180   179 1
  190   181   179 1
  191   182   179 1
  192   183   178 1
  193   184   178 1
  194   185   178 1
  195   186   177 1
  196   187   177 1
  197   188   177 1
  198   189   176 1
  199   190   176 1
  200   191   176 1
  201   192   175 1
  202   193   175 1
  203   194   175 1
  204   195   160 1
  205   196   160 1
  206   197   158 1
  207   198   158 1
  208   199   158 1
  209   200   157 1
  210   201   157 1
  211   202   157 1
  212   203   156 1
  213   204   156 1
  214   205   156 1
  215   206   155 1
  216   207   155 1
  217   208   155 1
  218   209   154 1
  219   210   154 1
  220   211   154 1
  221   212   141 1
  222   213   146 1
  223   214   145 1
  224   215   142 1
  225   216   142 1
  226   217   174 1
  227   218   173 1
  228   219   171 1
  229   220   170 1
  230   221   169 1
  231   222   140 1
  232   223   167 1
  233   224   166 1
  234   225   165 1
  235   226   163 1
  236   227   161 1
  237   228   139 1
  238   229   139 1
  239   230   153 1
  240   231   152 1
  241   232   150 1
  242   233   149 1
  243   234   148 1
  244   235   162 1
  245   65    153 1
  246   65    174 1
@<TRIPOS>SUBSTRUCTURE
      1 CLA               1 ****               0 ****  **** 
      2 LUT             138 ****               0 ****  **** 
