@<TRIPOS>MOLECULE
Cpptraj generated mol2 file.
  235   246     2     0     0
SMALL
USER_CHARGES


@<TRIPOS>ATOM
      1 CAA        79.7306   58.5238   34.3159 a2         1 CLA     -0.055900
      2 CAB        79.7884   62.0994   43.2897 c8         1 CLA     -0.148500
      3 CAC        72.8482   58.2541   42.6810 a2         1 CLA     -0.012600
      4 CAD        75.3874   56.1286   35.2638 ck         1 CLA      0.398800
      5 NA         78.5903   58.9310   37.6201 ns         1 CLA     -0.225500
      6 CBA        81.0482   58.5680   33.4350 a2         1 CLA     -0.135000
      7 CBB        80.7683   61.7516   44.1572 c0         1 CLA     -0.395200
      8 CBC        73.2532   56.7124   42.8825 a3         1 CLA     -0.037700
      9 CBD        76.9084   56.6790   34.9385 a1         1 CLA     -0.053900
     10 NB         78.5473   60.4811   40.1557 nm         1 CLA     -0.295700
     11 OBD        74.8009   55.3296   34.5080 o2         1 CLA     -0.494600
     12 CGA        81.5292   57.2678   32.7965 c4         1 CLA      0.827000
     13 CGD        77.8724   55.4692   34.8212 c4         1 CLA      0.655300
     14 ND         75.6975   58.1689   38.1561 nm         1 CLA     -0.291600
     15 CED        78.5304   53.4000   35.6940 a3         1 CLA      0.005400
     16 CHA        77.2337   57.5594   36.1761 cs         1 CLA     -0.123800
     17 CHB        80.5336   59.9454   38.7525 aa         1 CLA     -0.291900
     18 CHC        77.1624   60.8490   42.2006 aa         1 CLA     -0.090400
     19 CHD        73.9141   58.0811   39.7362 aa         1 CLA     -0.052000
     20 CMA        81.9767   57.7423   37.1370 a3         1 CLA     -0.230700
     21 CMB        81.8750   61.7177   40.7636 a3         1 CLA     -0.180800
     22 CMC        74.8822   60.2973   44.2119 a3         1 CLA     -0.134000
     23 CMD        72.5623   56.2355   37.5952 a3         1 CLA     -0.141100
     24 C1         82.1817   55.1416   33.6559 a2         1 CLA      0.023000
     25 C1A        78.4478   58.1920   36.5190 ac         1 CLA     -0.015100
     26 C1B        79.8560   60.5669   39.8498 cr         1 CLA      0.054700
     27 C1C        75.9904   60.1365   41.8279 cn         1 CLA     -0.005600
     28 C1D        74.4691   57.7399   38.5335 ap         1 CLA     -0.047300
     29 O1A        81.3163   56.8389   31.6644 o2         1 CLA     -0.610800
     30 O1D        78.8046   55.3276   34.0226 o2         1 CLA     -0.558200
     31 C2         82.6703   54.6427   34.9916 c8         1 CLA     -0.325100
     32 C2A        79.8204   57.9912   35.7652 a1         1 CLA      0.098600
     33 C2B        80.5017   61.3347   40.9073 cb         1 CLA      0.088500
     34 C2C        74.9435   59.8038   42.7997 cb         1 CLA      0.053700
     35 C2D        73.9385   56.9137   37.4757 cb         1 CLA      0.058900
     36 O2A        82.0187   56.6120   33.8245 o1         1 CLA     -0.437200
     37 O2D        77.6011   54.5158   35.7651 o1         1 CLA     -0.357600
     38 C3         83.8735   54.0873   35.1959 c5         1 CLA      0.031200
     39 C3A        80.8651   58.7216   36.5794 a1         1 CLA      0.166800
     40 C3B        79.5781   61.5549   41.9113 cb         1 CLA      0.035000
     41 C3C        74.0463   59.0183   42.1363 cb         1 CLA     -0.089900
     42 C3D        75.0065   56.7807   36.5084 cb         1 CLA     -0.035900
     43 C4         84.2345   52.6253   34.9542 a3         1 CLA     -0.053300
     44 C4A        79.9515   59.2155   37.7322 ac         1 CLA      0.001800
     45 C4B        78.3147   61.0929   41.3806 cn         1 CLA     -0.020900
     46 C4C        74.5781   58.8034   40.8343 cr         1 CLA     -0.044400
     47 C4D        76.0655   57.5331   37.0333 c6         1 CLA     -0.046000
     48 C5         85.0743   55.1263   35.2883 a2         1 CLA     -0.070400
     49 C6         85.2703   55.6650   36.6704 a2         1 CLA      0.043900
     50 C7         86.5583   56.5682   36.7351 a2         1 CLA     -0.150000
     51 C8         86.9336   57.3008   38.0325 a1         1 CLA      0.064200
     52 C9         87.8786   58.3467   37.5864 a3         1 CLA     -0.259300
     53 C10        87.4507   56.3384   39.1897 a2         1 CLA     -0.071900
     54 C11        87.9241   56.9081   40.5556 a2         1 CLA      0.014500
     55 C12        88.3049   55.6880   41.4562 a2         1 CLA     -0.112100
     56 C13        88.9565   56.1162   42.7845 a1         1 CLA      0.089200
     57 C14        89.2179   54.9412   43.7258 a3         1 CLA     -0.239100
     58 C15        88.0042   57.1629   43.6095 a2         1 CLA     -0.102200
     59 C16        88.4528   57.5453   45.0437 a2         1 CLA      0.023900
     60 C17        87.3523   58.2386   45.8820 a2         1 CLA     -0.105700
     61 C18        87.7768   58.9383   47.1983 a1         1 CLA      0.206800
     62 C19        86.6350   59.3949   47.9489 a3         1 CLA     -0.280100
     63 C20        88.7155   58.1252   48.1303 a3         1 CLA     -0.280100
     64 NC         75.8352   59.4007   40.6876 nx         1 CLA     -0.309200
     65 MG         77.0846   59.4260   39.0665 mg         1 CLA      0.895000
     66 HMD3       72.5008   55.6499   38.4990 dc         1 CLA      0.064300
     67 HMD2       71.9073   57.0137   37.6098 dc         1 CLA      0.064300
     68 HMD1       72.4713   55.4453   36.8209 dc         1 CLA      0.064300
     69 HMC3       75.2879   61.2663   44.4078 dc         1 CLA      0.052100
     70 HMC2       73.9069   60.3552   44.6808 dc         1 CLA      0.052100
     71 HMC1       75.5347   59.6729   44.8241 dc         1 CLA      0.052100
     72 HMB3       82.3307   62.2899   41.5722 dc         1 CLA      0.063600
     73 HMB2       82.2983   60.7009   40.6333 dc         1 CLA      0.063600
     74 HMB1       82.0664   62.2891   39.8676 dc         1 CLA      0.063600
     75 HMA3       81.3807   56.8924   37.6092 dc         1 CLA      0.058300
     76 HMA2       82.4617   57.3402   36.2892 dc         1 CLA      0.058300
     77 HMA1       82.7144   58.1316   37.8538 dc         1 CLA      0.058300
     78 HED3       78.0485   52.5872   36.1936 dc         1 CLA      0.079300
     79 HED2       78.6830   53.0675   34.6900 dc         1 CLA      0.079300
     80 HED1       79.4727   53.6497   36.2061 dc         1 CLA      0.079300
     81 HBC3       72.3766   56.2059   43.4225 dc         1 CLA      0.016300
     82 HBC2       73.5724   56.2736   41.9313 dc         1 CLA      0.016300
     83 HBC1       74.1069   56.7188   43.6240 dc         1 CLA      0.016300
     84 HBB2       80.7829   62.2979   45.0815 da         1 CLA      0.183000
     85 HBB1       81.5435   60.9517   44.1338 da         1 CLA      0.183000
     86 HBA2       80.7313   59.1351   32.5543 dc         1 CLA      0.029400
     87 HBA1       81.9048   59.1481   33.8865 dc         1 CLA      0.029400
     88 HAC2       72.5826   58.7035   43.6540 dc         1 CLA      0.029300
     89 HAC1       71.9815   58.2228   42.0496 dc         1 CLA      0.029300
     90 HAA2       78.9871   58.0106   33.7367 dc         1 CLA      0.028700
     91 HAA1       79.3409   59.4872   34.3093 dc         1 CLA      0.028700
     92 H203       88.8819   58.4741   49.1715 dc         1 CLA      0.065600
     93 H202       88.3212   57.1380   48.1535 dc         1 CLA      0.065600
     94 H201       89.6696   57.9299   47.6248 dc         1 CLA      0.065600
     95 H193       85.9544   60.0911   47.3588 dc         1 CLA      0.065600
     96 H192       86.0348   58.5159   48.1863 dc         1 CLA      0.065600
     97 H191       86.8377   59.8055   48.9071 dc         1 CLA      0.065600
     98 H172       86.8982   59.0434   45.2305 dc         1 CLA      0.027600
     99 H171       86.4437   57.6226   45.9598 dc         1 CLA      0.027600
    100 H162       88.6807   56.6809   45.6517 dc         1 CLA      0.002900
    101 H161       89.3836   58.0888   45.0022 dc         1 CLA      0.002900
    102 H152       87.7886   58.1471   43.2201 dc         1 CLA      0.029100
    103 H151       87.0997   56.6804   43.7306 dc         1 CLA      0.029100
    104 H143       89.6386   54.1500   43.1399 dc         1 CLA      0.063600
    105 H142       89.9989   55.1716   44.4606 dc         1 CLA      0.063600
    106 H141       88.2879   54.6914   44.1405 dc         1 CLA      0.063600
    107 H122       87.4446   55.0079   41.6780 dc         1 CLA      0.032500
    108 H121       89.1196   55.1883   40.9092 dc         1 CLA      0.032500
    109 H112       88.7772   57.4993   40.3363 dc         1 CLA      0.006600
    110 H111       87.1670   57.4707   41.0185 dc         1 CLA      0.006600
    111 H102       86.6729   55.5974   39.3212 dc         1 CLA      0.024100
    112 H101       88.2518   55.7497   38.7398 dc         1 CLA      0.024100
    113 HHD        72.9926   57.5639   40.0341 da         1 CLA      0.174300
    114 HHC        77.1990   61.2338   43.2088 da         1 CLA      0.136800
    115 HHB        81.6162   60.2034   38.6871 da         1 CLA      0.138300
    116 HBD        76.7933   57.3326   34.1055 dc         1 CLA      0.107700
    117 HAB        79.0248   62.8581   43.5968 da         1 CLA      0.155200
    118 H93        88.0812   58.9905   38.4252 dc         1 CLA      0.069500
    119 H92        88.8670   57.8131   37.2036 dc         1 CLA      0.069500
    120 H91        87.3963   58.9319   36.8323 dc         1 CLA      0.069500
    121 H8         85.9871   57.7137   38.3541 dc         1 CLA      0.029300
    122 H72        87.4444   56.0691   36.3974 dc         1 CLA      0.044400
    123 H71        86.3410   57.2468   35.9286 dc         1 CLA      0.044400
    124 H62        84.4699   56.3426   36.9173 dc         1 CLA      0.015600
    125 H61        85.4377   54.8163   37.3585 dc         1 CLA      0.015600
    126 H52        86.0415   54.7041   34.9848 dc         1 CLA      0.033200
    127 H51        84.8433   56.0042   34.7503 dc         1 CLA      0.033200
    128 H43        85.0261   52.7149   34.3191 dc         1 CLA      0.037000
    129 H42        84.6505   52.1439   35.8112 dc         1 CLA      0.037000
    130 H41        83.3728   52.0297   34.5843 dc         1 CLA      0.037000
    131 H3A        81.2968   59.4910   36.0264 dc         1 CLA      0.041100
    132 H2A        80.0341   56.9452   35.5962 dc         1 CLA      0.083100
    133 H2         82.0229   54.9094   35.8670 da         1 CLA      0.180900
    134 H18        88.3397   59.8056   46.9652 dc         1 CLA     -0.003900
    135 H13        89.9160   56.6470   42.6120 dc         1 CLA      0.019700
    136 H12        81.2742   54.6001   33.3615 dc         1 CLA      0.120400
    137 H11        82.8779   54.8900   32.8621 dc         1 CLA      0.120400
    138 C1         69.2660   60.8418   49.9056 Z1         2 LUT      0.509236
    139 C2         69.0070   61.5672   51.1839 Z2         2 LUT     -0.434695
    140 C3         67.6211   62.0660   51.3903 Z3         2 LUT      0.437453
    141 O3         67.5467   62.7103   52.6980 S1         2 LUT     -0.547129
    142 C4         67.2226   63.1303   50.3282 Z4         2 LUT     -0.468603
    143 C5         67.8351   62.8550   48.9568 Z5         2 LUT      0.279246
    144 C6         68.6314   61.7100   48.7347 Z6         2 LUT     -0.305473
    145 C7         69.2881   61.6736   47.4191 Z7         2 LUT      0.069402
    146 C8         70.0814   62.5441   46.7693 Z8         2 LUT     -0.191631
    147 C9         70.7916   62.3151   45.5135 Z9         2 LUT      0.196698
    148 C10        71.9274   63.0795   45.1936 Y1         2 LUT     -0.208611
    149 C11        72.6653   62.9883   44.0321 Y2         2 LUT      0.030784
    150 C12        73.8488   63.6724   43.8621 Y3         2 LUT     -0.220316
    151 C13        74.6271   63.6800   42.6230 Y4         2 LUT      0.215937
    152 C14        75.8089   64.3165   42.6261 Y5         2 LUT     -0.185793
    153 C15        76.7097   64.5139   41.5730 Y6         2 LUT     -0.057835
    154 C16        68.5758   59.4700   50.0352 Y7         2 LUT     -0.405615
    155 C17        70.8109   60.4870   49.9393 Y7         2 LUT     -0.405615
    156 C18        67.6815   64.0287   48.0191 Y9         2 LUT     -0.369639
    157 C19        70.2674   61.1644   44.5658 W1         2 LUT     -0.333362
    158 C20        74.0437   62.9893   41.3961 W2         2 LUT     -0.323439
    159 C21        88.3297   65.2166   35.3476 Z1         2 LUT      0.406104
    160 C22        88.8449   64.5435   34.0607 Z2         2 LUT     -0.404965
    161 C23        89.0328   65.4758   32.8782 Z3         2 LUT      0.391255
    162 O23        89.1865   64.6059   31.7692 S1         2 LUT     -0.528210
    163 C24        87.7947   66.3712   32.6517 W6         2 LUT     -0.258361
    164 C25        86.8255   66.5194   33.6734 Z5         2 LUT      0.133546
    165 C26        86.8952   65.6778   34.9682 W8         2 LUT     -0.147008
    166 C27        86.2137   66.2124   36.2353 Z7         2 LUT      0.023843
    167 C28        85.0443   65.7525   36.6686 Z8         2 LUT     -0.216987
    168 C29        84.3586   66.0463   37.9479 Z9         2 LUT      0.206524
    169 C30        83.2355   65.3530   38.2429 Y1         2 LUT     -0.215556
    170 C31        82.4053   65.4741   39.3978 Y2         2 LUT      0.025142
    171 C32        81.1994   64.8153   39.6632 Y3         2 LUT     -0.212209
    172 C33        80.3094   65.0919   40.8823 Y4         2 LUT      0.240937
    173 C34        79.0110   64.7129   40.7379 Y5         2 LUT     -0.218862
    174 C35        77.9596   64.9483   41.7177 Y6         2 LUT     -0.023547
    175 C36        89.3242   66.2750   35.7810 Y7         2 LUT     -0.393485
    176 C37        88.4545   63.9997   36.4341 Y7         2 LUT     -0.393485
    177 C38        85.6030   67.5017   33.5017 Y9         2 LUT     -0.387526
    178 C39        84.7914   67.1762   38.8311 W1         2 LUT     -0.322618
    179 C40        80.8447   65.8705   42.0809 W2         2 LUT     -0.358472
    180 H403       80.3416   65.6695   42.9681 R7         2 LUT      0.097720
    181 H402       81.9061   65.7292   42.3326 R7         2 LUT      0.097720
    182 H401       80.6500   66.9271   41.8979 R7         2 LUT      0.097720
    183 H393       84.2518   68.1004   38.8198 R4         2 LUT      0.082505
    184 H392       84.8179   66.8998   39.8640 R4         2 LUT      0.082505
    185 H391       85.8390   67.4934   38.5629 R4         2 LUT      0.082505
    186 H383       85.5215   68.3143   34.2622 R1         2 LUT      0.104030
    187 H382       85.6519   68.0191   32.5442 R1         2 LUT      0.104030
    188 H381       84.7025   66.9056   33.4315 R1         2 LUT      0.104030
    189 H373       89.4876   63.6936   36.6246 T4         2 LUT      0.089537
    190 H372       87.9129   64.3834   37.2887 T4         2 LUT      0.089537
    191 H371       87.9313   63.0978   36.2964 T4         2 LUT      0.089537
    192 H363       89.3059   66.5894   36.7991 T4         2 LUT      0.089537
    193 H362       90.3839   65.9616   35.5264 T4         2 LUT      0.089537
    194 H361       89.1705   67.2249   35.3308 T4         2 LUT      0.089537
    195 H222       89.7470   63.9891   34.3195 U2         2 LUT      0.127376
    196 H221       88.3320   63.6587   33.7998 U2         2 LUT      0.127376
    197 H203       74.7417   62.7940   40.6355 R7         2 LUT      0.087068
    198 H202       73.6304   61.9625   41.5840 R7         2 LUT      0.087068
    199 H201       73.1415   63.4884   41.0489 R7         2 LUT      0.087068
    200 H193       69.4250   61.5616   43.9288 R4         2 LUT      0.089716
    201 H192       71.0490   60.7917   43.8946 R4         2 LUT      0.089716
    202 H191       69.9423   60.2751   45.0481 R4         2 LUT      0.089716
    203 H183       68.3336   64.7715   48.3750 R1         2 LUT      0.094572
    204 H182       67.8263   63.8370   46.9875 R1         2 LUT      0.094572
    205 H181       66.7838   64.5740   48.1220 R1         2 LUT      0.094572
    206 H173       71.4196   61.3956   50.0608 T4         2 LUT      0.093752
    207 H172       71.0197   59.7195   50.7130 T4         2 LUT      0.093752
    208 H171       71.2183   60.0478   48.9913 T4         2 LUT      0.093752
    209 H163       68.8861   58.8078   49.2977 T4         2 LUT      0.093752
    210 H162       68.7495   59.0182   50.9874 T4         2 LUT      0.093752
    211 H161       67.4574   59.6208   49.8835 T4         2 LUT      0.093752
    212 HO3        67.4535   62.0673   53.3729 Q1         2 LUT      0.300121
    213 H8         70.2047   63.5204   47.2471 U7         2 LUT      0.080784
    214 H7         69.1577   60.7311   46.9216 U6         2 LUT      0.042190
    215 H42        66.1426   63.0907   50.2104 U5         2 LUT      0.145166
    216 H41        67.3631   64.1352   50.6736 U5         2 LUT      0.145166
    217 H35        78.1712   65.2945   42.7519 T3         2 LUT      0.077919
    218 H34        78.7355   64.1182   39.7889 T2         2 LUT      0.073626
    219 H32        80.8970   64.0650   38.8975 T1         2 LUT      0.092510
    220 H31        82.6970   66.1328   40.1683 U9         2 LUT      0.070048
    221 H30        82.8434   64.6821   37.4927 U8         2 LUT      0.085442
    222 H3         67.0007   61.1936   51.1842 U3         2 LUT     -0.031596
    223 H28        84.5543   65.0531   36.0033 U7         2 LUT      0.084728
    224 H27        86.7581   66.9455   36.8702 U6         2 LUT      0.087291
    225 H26        86.3548   64.7436   34.5821 Q6         2 LUT      0.075325
    226 H24        87.6727   66.9433   31.7525 Q5         2 LUT      0.094482
    227 H23        89.9043   66.2176   33.1062 U3         2 LUT     -0.024869
    228 H22        69.2207   60.9572   52.0807 U2         2 LUT      0.127376
    229 H21        69.7720   62.3374   51.3760 U2         2 LUT      0.127376
    230 H15        76.5563   64.1087   40.5589 T3         2 LUT      0.093200
    231 H14        76.0511   64.7589   43.5917 T2         2 LUT      0.068865
    232 H12        74.1855   64.2692   44.6752 T1         2 LUT      0.095507
    233 H11        72.2299   62.5452   43.1176 U9         2 LUT      0.068930
    234 H10        72.1396   63.8138   45.9772 U8         2 LUT      0.083911
    235 H1         89.6344   65.0386   31.0109 Q1         2 LUT      0.297311
@<TRIPOS>BOND
    1     6     1 1
    2     7     2 1
    3     8     3 1
    4     9     4 1
    5    11     4 1
    6    12     6 1
    7    13     9 1
    8    16     9 1
    9    25     5 1
   10    25    16 1
   11    26    10 1
   12    26    17 1
   13    27    18 1
   14    28    14 1
   15    28    19 1
   16    29    12 1
   17    30    13 1
   18    31    24 1
   19    32     1 1
   20    32    25 1
   21    33    21 1
   22    33    26 1
   23    34    22 1
   24    34    27 1
   25    35    23 1
   26    35    28 1
   27    36    12 1
   28    36    24 1
   29    37    13 1
   30    37    15 1
   31    38    31 1
   32    39    20 1
   33    39    32 1
   34    40     2 1
   35    40    33 1
   36    41     3 1
   37    41    34 1
   38    42     4 1
   39    42    35 1
   40    43    38 1
   41    44     5 1
   42    44    17 1
   43    44    39 1
   44    45    10 1
   45    45    18 1
   46    45    40 1
   47    46    19 1
   48    46    41 1
   49    47    14 1
   50    47    16 1
   51    47    42 1
   52    48    38 1
   53    49    48 1
   54    50    49 1
   55    51    50 1
   56    52    51 1
   57    53    51 1
   58    54    53 1
   59    55    54 1
   60    56    55 1
   61    57    56 1
   62    58    56 1
   63    59    58 1
   64    60    59 1
   65    61    60 1
   66    62    61 1
   67    63    61 1
   68    64    27 1
   69    64    46 1
   70    65     5 1
   71    65    10 1
   72    65    64 1
   73    65    14 1
   74    66    23 1
   75    67    23 1
   76    68    23 1
   77    69    22 1
   78    70    22 1
   79    71    22 1
   80    72    21 1
   81    73    21 1
   82    74    21 1
   83    75    20 1
   84    76    20 1
   85    77    20 1
   86    78    15 1
   87    79    15 1
   88    80    15 1
   89    81     8 1
   90    82     8 1
   91    83     8 1
   92    84     7 1
   93    85     7 1
   94    86     6 1
   95    87     6 1
   96    88     3 1
   97    89     3 1
   98    90     1 1
   99    91     1 1
  100    92    63 1
  101    93    63 1
  102    94    63 1
  103    95    62 1
  104    96    62 1
  105    97    62 1
  106    98    60 1
  107    99    60 1
  108   100    59 1
  109   101    59 1
  110   102    58 1
  111   103    58 1
  112   104    57 1
  113   105    57 1
  114   106    57 1
  115   107    55 1
  116   108    55 1
  117   109    54 1
  118   110    54 1
  119   111    53 1
  120   112    53 1
  121   113    19 1
  122   114    18 1
  123   115    17 1
  124   116     9 1
  125   117     2 1
  126   118    52 1
  127   119    52 1
  128   120    52 1
  129   121    51 1
  130   122    50 1
  131   123    50 1
  132   124    49 1
  133   125    49 1
  134   126    48 1
  135   127    48 1
  136   128    43 1
  137   129    43 1
  138   130    43 1
  139   131    39 1
  140   132    32 1
  141   133    31 1
  142   134    61 1
  143   135    56 1
  144   136    24 1
  145   137    24 1
  146   139   138 1
  147   140   139 1
  148   141   140 1
  149   142   140 1
  150   143   142 1
  151   144   138 1
  152   144   143 1
  153   145   144 1
  154   146   145 1
  155   147   146 1
  156   148   147 1
  157   149   148 1
  158   150   149 1
  159   151   150 1
  160   152   151 1
  161   153   152 1
  162   154   138 1
  163   155   138 1
  164   156   143 1
  165   157   147 1
  166   158   151 1
  167   160   159 1
  168   161   160 1
  169   162   161 1
  170   163   161 1
  171   164   163 1
  172   165   159 1
  173   165   164 1
  174   166   165 1
  175   167   166 1
  176   168   167 1
  177   169   168 1
  178   170   169 1
  179   171   170 1
  180   172   171 1
  181   173   172 1
  182   174   153 1
  183   174   173 1
  184   175   159 1
  185   176   159 1
  186   177   164 1
  187   178   168 1
  188   179   172 1
  189   180   179 1
  190   181   179 1
  191   182   179 1
  192   183   178 1
  193   184   178 1
  194   185   178 1
  195   186   177 1
  196   187   177 1
  197   188   177 1
  198   189   176 1
  199   190   176 1
  200   191   176 1
  201   192   175 1
  202   193   175 1
  203   194   175 1
  204   195   160 1
  205   196   160 1
  206   197   158 1
  207   198   158 1
  208   199   158 1
  209   200   157 1
  210   201   157 1
  211   202   157 1
  212   203   156 1
  213   204   156 1
  214   205   156 1
  215   206   155 1
  216   207   155 1
  217   208   155 1
  218   209   154 1
  219   210   154 1
  220   211   154 1
  221   212   141 1
  222   213   146 1
  223   214   145 1
  224   215   142 1
  225   216   142 1
  226   217   174 1
  227   218   173 1
  228   219   171 1
  229   220   170 1
  230   221   169 1
  231   222   140 1
  232   223   167 1
  233   224   166 1
  234   225   165 1
  235   226   163 1
  236   227   161 1
  237   228   139 1
  238   229   139 1
  239   230   153 1
  240   231   152 1
  241   232   150 1
  242   233   149 1
  243   234   148 1
  244   235   162 1
  245   65    153 1
  246   65    174 1
@<TRIPOS>SUBSTRUCTURE
      1 CLA               1 ****               0 ****  **** 
      2 LUT             138 ****               0 ****  **** 
