@<TRIPOS>MOLECULE
Cpptraj generated mol2 file.
  235   246     2     0     0
SMALL
USER_CHARGES


@<TRIPOS>ATOM
      1 CAA        77.8520   58.6721   33.1389 a2         1 CLA     -0.055900
      2 CAB        78.3531   62.0645   42.3138 c8         1 CLA     -0.148500
      3 CAC        71.1934   58.1233   41.8179 a2         1 CLA     -0.012600
      4 CAD        73.7567   55.9995   34.2668 ck         1 CLA      0.398800
      5 NA         76.9603   58.8920   36.5575 ns         1 CLA     -0.225500
      6 CBA        79.0153   58.6662   32.1708 a2         1 CLA     -0.135000
      7 CBB        78.1622   61.4616   43.4953 c0         1 CLA     -0.395200
      8 CBC        71.2593   56.6040   41.7241 a3         1 CLA     -0.037700
      9 CBD        75.3114   56.4765   34.1328 a1         1 CLA     -0.053900
     10 NB         76.9555   60.2458   39.2361 nm         1 CLA     -0.295700
     11 OBD        73.0935   55.3774   33.4413 o2         1 CLA     -0.494600
     12 CGA        79.5756   57.3330   31.7104 c4         1 CLA      0.827000
     13 CGD        76.2421   55.3147   33.9044 c4         1 CLA      0.655300
     14 ND         74.2369   57.9022   37.1975 nm         1 CLA     -0.291600
     15 CED        76.8002   53.0303   34.5592 a3         1 CLA      0.005400
     16 CHA        75.6505   57.3241   35.2834 cs         1 CLA     -0.123800
     17 CHB        78.7348   60.3035   37.6047 aa         1 CLA     -0.291900
     18 CHC        75.6807   60.4260   41.2788 aa         1 CLA     -0.090400
     19 CHD        72.3994   57.8429   38.8498 aa         1 CLA     -0.052000
     20 CMA        80.3820   58.4047   35.9247 a3         1 CLA     -0.230700
     21 CMB        80.2177   62.1299   39.7497 a3         1 CLA     -0.180800
     22 CMC        73.4006   59.9659   43.4141 a3         1 CLA     -0.134000
     23 CMD        71.1579   55.8198   36.5746 a3         1 CLA     -0.141100
     24 C1         80.3644   55.3980   32.6877 a2         1 CLA      0.023000
     25 C1A        76.8120   58.1015   35.4779 ac         1 CLA     -0.015100
     26 C1B        78.1796   60.6810   38.8251 cr         1 CLA      0.054700
     27 C1C        74.4909   59.7127   41.0237 cn         1 CLA     -0.005600
     28 C1D        72.9439   57.4620   37.5930 ap         1 CLA     -0.047300
     29 O1A        79.5050   56.8101   30.6145 o2         1 CLA     -0.610800
     30 O1D        77.1588   55.3613   33.0670 o2         1 CLA     -0.558200
     31 C2         81.1074   55.0480   33.9196 c8         1 CLA     -0.325100
     32 C2A        78.1314   58.1253   34.5972 a1         1 CLA      0.098600
     33 C2B        78.8712   61.4702   39.8608 cb         1 CLA      0.088500
     34 C2C        73.3369   59.5137   41.9380 cb         1 CLA      0.053700
     35 C2D        72.4149   56.5705   36.5492 cb         1 CLA      0.058900
     36 O2A        80.3077   56.8621   32.7659 o1         1 CLA     -0.437200
     37 O2D        75.9716   54.2513   34.7354 o1         1 CLA     -0.357600
     38 C3         82.0956   54.1521   34.0598 c5         1 CLA      0.031200
     39 C3A        79.0261   59.0306   35.4346 a1         1 CLA      0.166800
     40 C3B        78.0387   61.4457   40.9855 cb         1 CLA      0.035000
     41 C3C        72.3999   58.8076   41.2053 cb         1 CLA     -0.089900
     42 C3D        73.4372   56.5116   35.5508 cb         1 CLA     -0.035900
     43 C4         81.8761   52.6652   34.3483 a3         1 CLA     -0.053300
     44 C4A        78.1648   59.4929   36.5596 ac         1 CLA      0.001800
     45 C4B        76.8495   60.6571   40.5388 cn         1 CLA     -0.020900
     46 C4C        72.9584   58.6367   39.8565 cr         1 CLA     -0.044400
     47 C4D        74.4978   57.3781   36.0186 c6         1 CLA     -0.046000
     48 C5         83.5560   54.5993   33.8114 a2         1 CLA     -0.070400
     49 C6         83.9110   55.9255   34.4800 a2         1 CLA      0.043900
     50 C7         83.6242   55.7981   35.9748 a2         1 CLA     -0.150000
     51 C8         84.3678   56.8255   36.9248 a1         1 CLA      0.064200
     52 C9         85.8973   56.8070   36.7710 a3         1 CLA     -0.259300
     53 C10        84.0850   56.5270   38.3836 a2         1 CLA     -0.071900
     54 C11        82.6951   56.7598   38.9135 a2         1 CLA      0.014500
     55 C12        82.6279   57.1000   40.4656 a2         1 CLA     -0.112100
     56 C13        81.1451   57.2329   41.0963 a1         1 CLA      0.089200
     57 C14        80.4815   58.4506   40.5066 a3         1 CLA     -0.239100
     58 C15        81.1014   57.2923   42.6129 a2         1 CLA     -0.102200
     59 C16        81.6267   58.5237   43.3251 a2         1 CLA      0.023900
     60 C17        83.0981   59.0198   43.1434 a2         1 CLA     -0.105700
     61 C18        83.5620   60.2617   43.9030 a1         1 CLA      0.206800
     62 C19        82.7854   61.6071   43.5488 a3         1 CLA     -0.280100
     63 C20        83.3337   60.0130   45.4811 a3         1 CLA     -0.280100
     64 NC         74.1980   59.2520   39.7937 nx         1 CLA     -0.309200
     65 MG         75.5241   59.1427   38.0781 mg         1 CLA      0.895000
     66 HMD3       70.3512   56.4821   36.1970 dc         1 CLA      0.064300
     67 HMD2       71.2525   54.8878   35.9306 dc         1 CLA      0.064300
     68 HMD1       70.9478   55.5205   37.5999 dc         1 CLA      0.064300
     69 HMC3       72.5025   59.7210   44.0471 dc         1 CLA      0.052100
     70 HMC2       74.1825   59.4979   44.0154 dc         1 CLA      0.052100
     71 HMC1       73.6024   61.0254   43.5222 dc         1 CLA      0.052100
     72 HMB3       81.0460   61.4392   39.5248 dc         1 CLA      0.063600
     73 HMB2       80.1237   62.8271   38.9096 dc         1 CLA      0.063600
     74 HMB1       80.4779   62.7069   40.6100 dc         1 CLA      0.063600
     75 HMA3       81.0258   59.0230   36.4212 dc         1 CLA      0.058300
     76 HMA2       80.2292   57.4013   36.4369 dc         1 CLA      0.058300
     77 HMA1       80.8903   58.1437   34.9856 dc         1 CLA      0.058300
     78 HED3       76.8117   52.6465   33.4735 dc         1 CLA      0.079300
     79 HED2       77.8631   53.1825   34.7726 dc         1 CLA      0.079300
     80 HED1       76.4074   52.2337   35.1794 dc         1 CLA      0.079300
     81 HBC3       71.0799   56.1026   40.7419 dc         1 CLA      0.016300
     82 HBC2       72.2071   56.2354   42.2294 dc         1 CLA      0.016300
     83 HBC1       70.4298   56.3054   42.4427 dc         1 CLA      0.016300
     84 HBB2       78.3359   62.0388   44.4505 da         1 CLA      0.183000
     85 HBB1       77.7057   60.3952   43.5432 da         1 CLA      0.183000
     86 HBA2       78.6554   59.2355   31.3228 dc         1 CLA      0.029400
     87 HBA1       79.8577   59.2249   32.6369 dc         1 CLA      0.029400
     88 HAC2       71.1246   58.3420   42.8834 dc         1 CLA      0.029300
     89 HAC1       70.2744   58.4359   41.4234 dc         1 CLA      0.029300
     90 HAA2       77.0471   58.0845   32.7441 dc         1 CLA      0.028700
     91 HAA1       77.5088   59.7220   33.2286 dc         1 CLA      0.028700
     92 H203       83.8204   60.7492   46.1535 dc         1 CLA      0.065600
     93 H202       82.2671   59.9216   45.7516 dc         1 CLA      0.065600
     94 H201       83.7797   59.0027   45.6817 dc         1 CLA      0.065600
     95 H193       83.0668   62.0176   42.6225 dc         1 CLA      0.065600
     96 H192       81.6930   61.5591   43.6834 dc         1 CLA      0.065600
     97 H191       83.2281   62.3533   44.3075 dc         1 CLA      0.065600
     98 H172       83.7167   58.1962   43.2006 dc         1 CLA      0.027600
     99 H171       83.1754   59.3754   42.1366 dc         1 CLA      0.027600
    100 H162       80.9277   59.3777   43.1936 dc         1 CLA      0.002900
    101 H161       81.6979   58.2571   44.3408 dc         1 CLA      0.002900
    102 H152       80.0568   57.2362   42.9207 dc         1 CLA      0.029100
    103 H151       81.6254   56.5091   43.0897 dc         1 CLA      0.029100
    104 H143       79.5463   58.5643   41.0560 dc         1 CLA      0.063600
    105 H142       81.0919   59.3411   40.5481 dc         1 CLA      0.063600
    106 H141       80.2002   58.4160   39.4260 dc         1 CLA      0.063600
    107 H122       83.2328   56.2688   40.8993 dc         1 CLA      0.032500
    108 H121       83.1369   57.9981   40.6513 dc         1 CLA      0.032500
    109 H112       82.1647   57.5047   38.3820 dc         1 CLA      0.006600
    110 H111       82.1758   55.7825   38.7587 dc         1 CLA      0.006600
    111 H102       84.3213   55.5068   38.5544 dc         1 CLA      0.024100
    112 H101       84.7983   57.0708   38.9948 dc         1 CLA      0.024100
    113 HHD        71.3712   57.4260   38.9528 da         1 CLA      0.174300
    114 HHC        75.8008   60.8351   42.2689 da         1 CLA      0.136800
    115 HHB        79.7127   60.7399   37.4362 da         1 CLA      0.138300
    116 HBD        75.2915   57.0707   33.2234 dc         1 CLA      0.107700
    117 HAB        78.7119   63.0845   42.5253 da         1 CLA      0.155200
    118 H93        86.2578   55.7927   36.9201 dc         1 CLA      0.069500
    119 H92        86.2259   57.1559   35.7629 dc         1 CLA      0.069500
    120 H91        86.3741   57.4905   37.4666 dc         1 CLA      0.069500
    121 H8         84.2133   57.8327   36.6331 dc         1 CLA      0.029300
    122 H72        82.5792   55.7156   36.2713 dc         1 CLA      0.044400
    123 H71        84.0414   54.8775   36.2966 dc         1 CLA      0.044400
    124 H62        85.0135   56.0181   34.2559 dc         1 CLA      0.015600
    125 H61        83.3230   56.7030   34.0291 dc         1 CLA      0.015600
    126 H52        84.2086   53.7778   34.2102 dc         1 CLA      0.033200
    127 H51        83.7155   54.7001   32.7554 dc         1 CLA      0.033200
    128 H43        80.8739   52.3542   34.1608 dc         1 CLA      0.037000
    129 H42        82.5692   52.0745   33.7276 dc         1 CLA      0.037000
    130 H41        82.1379   52.5926   35.3620 dc         1 CLA      0.037000
    131 H3A        79.2487   59.8753   34.8718 dc         1 CLA      0.041100
    132 H2A        78.5004   57.1135   34.5528 dc         1 CLA      0.083100
    133 H2         80.7723   55.6375   34.8165 da         1 CLA      0.180900
    134 H18        84.6206   60.5349   43.6493 dc         1 CLA     -0.003900
    135 H13        80.5049   56.4451   40.7507 dc         1 CLA      0.019700
    136 H12        79.4403   54.9158   32.6594 dc         1 CLA      0.120400
    137 H11        80.9090   55.0973   31.7689 dc         1 CLA      0.120400
    138 C1         68.3171   61.3334   49.0032 Z1         2 LUT      0.509236
    139 C2         68.4087   62.6987   49.8429 Z2         2 LUT     -0.434695
    140 C3         67.1366   63.5245   50.0091 Z3         2 LUT      0.437453
    141 O3         67.5210   64.8976   50.0829 S1         2 LUT     -0.547129
    142 C4         66.0301   63.1702   48.9296 Z4         2 LUT     -0.468603
    143 C5         66.7766   62.7099   47.7054 Z5         2 LUT      0.279246
    144 C6         67.6643   61.6598   47.7333 Z6         2 LUT     -0.305473
    145 C7         68.3934   61.4516   46.5305 Z7         2 LUT      0.069402
    146 C8         69.4885   62.0050   45.8775 Z8         2 LUT     -0.191631
    147 C9         69.8964   61.6338   44.5764 Z9         2 LUT      0.196698
    148 C10        70.6206   62.4750   43.8722 Y1         2 LUT     -0.208611
    149 C11        71.1723   62.4664   42.5070 Y2         2 LUT      0.030784
    150 C12        72.2542   63.2884   42.3883 Y3         2 LUT     -0.220316
    151 C13        73.1874   63.3469   41.2464 Y4         2 LUT      0.215937
    152 C14        74.3417   64.0434   41.3540 Y5         2 LUT     -0.185793
    153 C15        75.4682   64.1235   40.4206 Y6         2 LUT     -0.057835
    154 C16        67.5094   60.3322   49.8600 Y7         2 LUT     -0.405615
    155 C17        69.6861   60.8356   49.0809 Y7         2 LUT     -0.405615
    156 C18        66.5372   63.6323   46.5553 Y9         2 LUT     -0.369639
    157 C19        69.4543   60.2888   44.0141 W1         2 LUT     -0.333362
    158 C20        72.6591   62.8292   39.9228 W2         2 LUT     -0.323439
    159 C21        86.9658   66.1119   34.5186 Z1         2 LUT      0.406104
    160 C22        87.7561   65.5526   33.2891 Z2         2 LUT     -0.404965
    161 C23        87.7783   66.5871   32.1070 Z3         2 LUT      0.391255
    162 O23        88.5410   66.0093   30.9778 S1         2 LUT     -0.528210
    163 C24        86.4074   67.2479   31.8917 W6         2 LUT     -0.258361
    164 C25        85.4085   67.2677   32.7506 Z5         2 LUT      0.133546
    165 C26        85.4855   66.5253   34.0485 W8         2 LUT     -0.147008
    166 C27        84.5489   67.1202   35.1505 Z7         2 LUT      0.023843
    167 C28        83.7158   66.3905   35.9466 Z8         2 LUT     -0.216987
    168 C29        83.0451   66.6442   37.2932 Z9         2 LUT      0.206524
    169 C30        81.8975   65.9762   37.4852 Y1         2 LUT     -0.215556
    170 C31        80.9825   66.0837   38.6260 Y2         2 LUT      0.025142
    171 C32        79.7641   65.4517   38.7732 Y3         2 LUT     -0.212209
    172 C33        78.8820   65.5177   39.8765 Y4         2 LUT      0.240937
    173 C34        77.6491   64.8859   39.7385 Y5         2 LUT     -0.218862
    174 C35        76.6062   64.8360   40.6888 Y6         2 LUT     -0.023547
    175 C36        87.7368   67.3179   35.0484 Y7         2 LUT     -0.393485
    176 C37        86.8440   64.9728   35.6050 Y7         2 LUT     -0.393485
    177 C38        84.0811   67.9977   32.5665 Y9         2 LUT     -0.387526
    178 C39        83.6579   67.5392   38.3537 W1         2 LUT     -0.322618
    179 C40        79.1741   66.2814   41.1296 W2         2 LUT     -0.358472
    180 H403       78.9270   67.3289   41.1094 R7         2 LUT      0.097720
    181 H402       78.5414   65.8711   41.9626 R7         2 LUT      0.097720
    182 H401       80.1960   66.1873   41.5189 R7         2 LUT      0.097720
    183 H393       83.9748   66.8234   39.1265 R4         2 LUT      0.082505
    184 H392       84.5900   68.0036   38.0086 R4         2 LUT      0.082505
    185 H391       83.0441   68.2908   38.7162 R4         2 LUT      0.082505
    186 H383       83.5169   67.3058   31.9939 R1         2 LUT      0.104030
    187 H382       83.5247   68.3536   33.5022 R1         2 LUT      0.104030
    188 H381       84.2120   68.9517   31.9626 R1         2 LUT      0.104030
    189 H373       86.1727   64.1161   35.3366 T4         2 LUT      0.089537
    190 H372       87.7749   64.5890   36.0315 T4         2 LUT      0.089537
    191 H371       86.2492   65.4204   36.3793 T4         2 LUT      0.089537
    192 H363       87.7529   68.2026   34.3986 T4         2 LUT      0.089537
    193 H362       87.2214   67.6559   35.9365 T4         2 LUT      0.089537
    194 H361       88.7842   67.1100   35.3635 T4         2 LUT      0.089537
    195 H222       88.7780   65.1821   33.5334 U2         2 LUT      0.127376
    196 H221       87.2238   64.6288   32.9438 U2         2 LUT      0.127376
    197 H203       73.1091   63.4040   39.1391 R7         2 LUT      0.087068
    198 H202       72.8786   61.7677   39.6745 R7         2 LUT      0.087068
    199 H201       71.5837   62.8851   39.8106 R7         2 LUT      0.087068
    200 H193       69.6434   60.3740   42.9701 R4         2 LUT      0.089716
    201 H192       69.9796   59.4863   44.5050 R4         2 LUT      0.089716
    202 H191       68.3708   60.0861   44.1070 R4         2 LUT      0.089716
    203 H183       65.5068   63.9965   46.5668 R1         2 LUT      0.094572
    204 H182       67.2437   64.4427   46.5563 R1         2 LUT      0.094572
    205 H181       66.7005   63.0189   45.6565 R1         2 LUT      0.094572
    206 H173       70.0358   60.7385   50.1875 T4         2 LUT      0.093752
    207 H172       69.7324   59.8536   48.6357 T4         2 LUT      0.093752
    208 H171       70.3809   61.5092   48.6205 T4         2 LUT      0.093752
    209 H163       66.4000   60.5359   49.8723 T4         2 LUT      0.093752
    210 H162       67.3873   59.2177   49.6494 T4         2 LUT      0.093752
    211 H161       67.9037   60.3720   50.9033 T4         2 LUT      0.093752
    212 HO3        66.8768   65.3704   50.6584 Q1         2 LUT      0.300121
    213 H8         70.0853   62.7714   46.5077 U7         2 LUT      0.080784
    214 H7         67.7918   60.8235   45.9587 U6         2 LUT      0.042190
    215 H42        65.3962   62.3368   49.3010 U5         2 LUT      0.145166
    216 H41        65.4867   64.1191   48.7024 U5         2 LUT      0.145166
    217 H35        76.6145   65.3039   41.6621 T3         2 LUT      0.077919
    218 H34        77.6093   64.3162   38.8668 T2         2 LUT      0.073626
    219 H32        79.4370   64.8783   37.9483 T1         2 LUT      0.092510
    220 H31        81.3937   66.6335   39.4502 U9         2 LUT      0.070048
    221 H30        81.5925   65.3289   36.7106 U8         2 LUT      0.085442
    222 H3         66.6010   63.1348   50.9146 U3         2 LUT     -0.031596
    223 H28        83.3543   65.4716   35.3620 U7         2 LUT      0.084728
    224 H27        84.8347   68.0549   35.4597 U6         2 LUT      0.087291
    225 H26        84.9721   65.5693   33.6979 Q6         2 LUT      0.075325
    226 H24        86.4096   67.8176   30.9820 Q5         2 LUT      0.094482
    227 H23        88.4695   67.3383   32.4723 U3         2 LUT     -0.024869
    228 H22        68.8962   62.6664   50.8102 U2         2 LUT      0.127376
    229 H21        69.1499   63.3735   49.2973 U2         2 LUT      0.127376
    230 H15        75.2909   63.5087   39.5266 T3         2 LUT      0.093200
    231 H14        74.5054   64.6641   42.2410 T2         2 LUT      0.068865
    232 H12        72.5577   63.7981   43.3356 T1         2 LUT      0.095507
    233 H11        70.8623   61.7543   41.7423 U9         2 LUT      0.068930
    234 H10        70.8860   63.3282   44.5316 U8         2 LUT      0.083911
    235 H1         87.9341   65.4423   30.4522 Q1         2 LUT      0.297311
@<TRIPOS>BOND
    1     6     1 1
    2     7     2 1
    3     8     3 1
    4     9     4 1
    5    11     4 1
    6    12     6 1
    7    13     9 1
    8    16     9 1
    9    25     5 1
   10    25    16 1
   11    26    10 1
   12    26    17 1
   13    27    18 1
   14    28    14 1
   15    28    19 1
   16    29    12 1
   17    30    13 1
   18    31    24 1
   19    32     1 1
   20    32    25 1
   21    33    21 1
   22    33    26 1
   23    34    22 1
   24    34    27 1
   25    35    23 1
   26    35    28 1
   27    36    12 1
   28    36    24 1
   29    37    13 1
   30    37    15 1
   31    38    31 1
   32    39    20 1
   33    39    32 1
   34    40     2 1
   35    40    33 1
   36    41     3 1
   37    41    34 1
   38    42     4 1
   39    42    35 1
   40    43    38 1
   41    44     5 1
   42    44    17 1
   43    44    39 1
   44    45    10 1
   45    45    18 1
   46    45    40 1
   47    46    19 1
   48    46    41 1
   49    47    14 1
   50    47    16 1
   51    47    42 1
   52    48    38 1
   53    49    48 1
   54    50    49 1
   55    51    50 1
   56    52    51 1
   57    53    51 1
   58    54    53 1
   59    55    54 1
   60    56    55 1
   61    57    56 1
   62    58    56 1
   63    59    58 1
   64    60    59 1
   65    61    60 1
   66    62    61 1
   67    63    61 1
   68    64    27 1
   69    64    46 1
   70    65     5 1
   71    65    10 1
   72    65    64 1
   73    65    14 1
   74    66    23 1
   75    67    23 1
   76    68    23 1
   77    69    22 1
   78    70    22 1
   79    71    22 1
   80    72    21 1
   81    73    21 1
   82    74    21 1
   83    75    20 1
   84    76    20 1
   85    77    20 1
   86    78    15 1
   87    79    15 1
   88    80    15 1
   89    81     8 1
   90    82     8 1
   91    83     8 1
   92    84     7 1
   93    85     7 1
   94    86     6 1
   95    87     6 1
   96    88     3 1
   97    89     3 1
   98    90     1 1
   99    91     1 1
  100    92    63 1
  101    93    63 1
  102    94    63 1
  103    95    62 1
  104    96    62 1
  105    97    62 1
  106    98    60 1
  107    99    60 1
  108   100    59 1
  109   101    59 1
  110   102    58 1
  111   103    58 1
  112   104    57 1
  113   105    57 1
  114   106    57 1
  115   107    55 1
  116   108    55 1
  117   109    54 1
  118   110    54 1
  119   111    53 1
  120   112    53 1
  121   113    19 1
  122   114    18 1
  123   115    17 1
  124   116     9 1
  125   117     2 1
  126   118    52 1
  127   119    52 1
  128   120    52 1
  129   121    51 1
  130   122    50 1
  131   123    50 1
  132   124    49 1
  133   125    49 1
  134   126    48 1
  135   127    48 1
  136   128    43 1
  137   129    43 1
  138   130    43 1
  139   131    39 1
  140   132    32 1
  141   133    31 1
  142   134    61 1
  143   135    56 1
  144   136    24 1
  145   137    24 1
  146   139   138 1
  147   140   139 1
  148   141   140 1
  149   142   140 1
  150   143   142 1
  151   144   138 1
  152   144   143 1
  153   145   144 1
  154   146   145 1
  155   147   146 1
  156   148   147 1
  157   149   148 1
  158   150   149 1
  159   151   150 1
  160   152   151 1
  161   153   152 1
  162   154   138 1
  163   155   138 1
  164   156   143 1
  165   157   147 1
  166   158   151 1
  167   160   159 1
  168   161   160 1
  169   162   161 1
  170   163   161 1
  171   164   163 1
  172   165   159 1
  173   165   164 1
  174   166   165 1
  175   167   166 1
  176   168   167 1
  177   169   168 1
  178   170   169 1
  179   171   170 1
  180   172   171 1
  181   173   172 1
  182   174   153 1
  183   174   173 1
  184   175   159 1
  185   176   159 1
  186   177   164 1
  187   178   168 1
  188   179   172 1
  189   180   179 1
  190   181   179 1
  191   182   179 1
  192   183   178 1
  193   184   178 1
  194   185   178 1
  195   186   177 1
  196   187   177 1
  197   188   177 1
  198   189   176 1
  199   190   176 1
  200   191   176 1
  201   192   175 1
  202   193   175 1
  203   194   175 1
  204   195   160 1
  205   196   160 1
  206   197   158 1
  207   198   158 1
  208   199   158 1
  209   200   157 1
  210   201   157 1
  211   202   157 1
  212   203   156 1
  213   204   156 1
  214   205   156 1
  215   206   155 1
  216   207   155 1
  217   208   155 1
  218   209   154 1
  219   210   154 1
  220   211   154 1
  221   212   141 1
  222   213   146 1
  223   214   145 1
  224   215   142 1
  225   216   142 1
  226   217   174 1
  227   218   173 1
  228   219   171 1
  229   220   170 1
  230   221   169 1
  231   222   140 1
  232   223   167 1
  233   224   166 1
  234   225   165 1
  235   226   163 1
  236   227   161 1
  237   228   139 1
  238   229   139 1
  239   230   153 1
  240   231   152 1
  241   232   150 1
  242   233   149 1
  243   234   148 1
  244   235   162 1
  245   65    153 1
  246   65    174 1
@<TRIPOS>SUBSTRUCTURE
      1 CLA               1 ****               0 ****  **** 
      2 LUT             138 ****               0 ****  **** 
