@<TRIPOS>MOLECULE
Cpptraj generated mol2 file.
  235   246     2     0     0
SMALL
USER_CHARGES


@<TRIPOS>ATOM
      1 CAA        77.7742   57.8242   35.5691 a2         1 CLA     -0.055900
      2 CAB        77.8187   61.8195   44.4423 c8         1 CLA     -0.148500
      3 CAC        70.7208   57.9688   43.7544 a2         1 CLA     -0.012600
      4 CAD        73.5240   55.2468   36.8161 ck         1 CLA      0.398800
      5 NA         76.8025   58.1398   38.9887 ns         1 CLA     -0.225500
      6 CBA        79.0623   57.9123   34.7926 a2         1 CLA     -0.135000
      7 CBB        79.0085   61.7382   45.0309 c0         1 CLA     -0.395200
      8 CBC        70.9536   56.3759   44.0419 a3         1 CLA     -0.037700
      9 CBD        75.1174   55.6833   36.4769 a1         1 CLA     -0.053900
     10 NB         76.6232   59.8489   41.4237 nm         1 CLA     -0.295700
     11 OBD        72.8381   54.4586   36.1818 o2         1 CLA     -0.494600
     12 CGA        79.7115   56.6419   34.2985 c4         1 CLA      0.827000
     13 CGD        76.0397   54.4580   36.5964 c4         1 CLA      0.655300
     14 ND         73.9688   57.4665   39.5472 nm         1 CLA     -0.291600
     15 CED        76.8238   52.8427   38.1782 a3         1 CLA      0.005400
     16 CHA        75.3842   56.7297   37.5690 cs         1 CLA     -0.123800
     17 CHB        78.6331   59.5417   39.9696 aa         1 CLA     -0.291900
     18 CHC        75.2064   60.4353   43.4689 aa         1 CLA     -0.090400
     19 CHD        71.9948   57.4991   41.0005 aa         1 CLA     -0.052000
     20 CMA        80.0580   57.2534   38.4074 a3         1 CLA     -0.230700
     21 CMB        79.9226   61.7189   41.9051 a3         1 CLA     -0.180800
     22 CMC        72.7287   59.8204   45.4621 a3         1 CLA     -0.134000
     23 CMD        70.6506   55.8456   38.6704 a3         1 CLA     -0.141100
     24 C1         80.4498   54.4917   34.9685 a2         1 CLA      0.023000
     25 C1A        76.6024   57.4025   37.8237 ac         1 CLA     -0.015100
     26 C1B        77.9656   60.1345   41.0836 cr         1 CLA      0.054700
     27 C1C        74.0419   59.6732   43.1965 cn         1 CLA     -0.005600
     28 C1D        72.6655   57.1193   39.8047 ap         1 CLA     -0.047300
     29 O1A        79.8456   56.4116   33.1030 o2         1 CLA     -0.610800
     30 O1D        76.9212   54.1130   35.7674 o2         1 CLA     -0.558200
     31 C2         80.8907   53.7817   36.2216 c8         1 CLA     -0.325100
     32 C2A        77.8804   57.2494   37.0882 a1         1 CLA      0.098600
     33 C2B        78.5559   60.9831   42.1097 cb         1 CLA      0.088500
     34 C2C        72.8616   59.4100   43.9815 cb         1 CLA      0.053700
     35 C2D        72.0649   56.3551   38.7283 cb         1 CLA      0.058900
     36 O2A        80.0722   55.8564   35.3324 o1         1 CLA     -0.437200
     37 O2D        75.7942   53.8283   37.7424 o1         1 CLA     -0.357600
     38 C3         82.1347   53.7126   36.6806 c5         1 CLA      0.031200
     39 C3A        78.9305   58.0835   37.9567 a1         1 CLA      0.166800
     40 C3B        77.6265   61.1563   43.1143 cb         1 CLA      0.035000
     41 C3C        72.0059   58.5924   43.2631 cb         1 CLA     -0.089900
     42 C3D        73.1666   56.0737   37.8956 cb         1 CLA     -0.035900
     43 C4         83.0008   52.4787   36.5337 a3         1 CLA     -0.053300
     44 C4A        78.0705   58.6135   39.0572 ac         1 CLA      0.001800
     45 C4B        76.3841   60.5101   42.6686 cn         1 CLA     -0.020900
     46 C4C        72.6381   58.3105   41.9979 cr         1 CLA     -0.044400
     47 C4D        74.2505   56.8456   38.3402 c6         1 CLA     -0.046000
     48 C5         82.4835   54.8758   37.6672 a2         1 CLA     -0.070400
     49 C6         83.7521   54.6377   38.4979 a2         1 CLA      0.043900
     50 C7         83.9383   55.6027   39.7051 a2         1 CLA     -0.150000
     51 C8         83.8617   57.1231   39.3433 a1         1 CLA      0.064200
     52 C9         84.9803   57.4349   38.2904 a3         1 CLA     -0.259300
     53 C10        84.0732   57.9260   40.6156 a2         1 CLA     -0.071900
     54 C11        83.0131   57.9924   41.6381 a2         1 CLA      0.014500
     55 C12        83.3014   59.0262   42.7527 a2         1 CLA     -0.112100
     56 C13        84.6844   59.0867   43.4454 a1         1 CLA      0.089200
     57 C14        85.0497   57.7989   44.2516 a3         1 CLA     -0.239100
     58 C15        84.8387   60.3337   44.2832 a2         1 CLA     -0.102200
     59 C16        83.8670   60.5978   45.4634 a2         1 CLA      0.023900
     60 C17        84.4150   61.7342   46.3667 a2         1 CLA     -0.105700
     61 C18        83.6258   62.2627   47.6147 a1         1 CLA      0.206800
     62 C19        82.1677   62.6436   47.3787 a3         1 CLA     -0.280100
     63 C20        83.7263   61.0752   48.6422 a3         1 CLA     -0.280100
     64 NC         73.8583   58.9689   41.9594 nx         1 CLA     -0.309200
     65 MG         75.2642   58.7328   40.4092 mg         1 CLA      0.895000
     66 HMD3       70.4840   54.9397   39.2997 dc         1 CLA      0.064300
     67 HMD2       69.8780   56.4790   39.0215 dc         1 CLA      0.064300
     68 HMD1       70.6184   55.5435   37.5970 dc         1 CLA      0.064300
     69 HMC3       72.3159   58.9701   45.9623 dc         1 CLA      0.052100
     70 HMC2       73.7160   60.0686   45.8590 dc         1 CLA      0.052100
     71 HMC1       72.0131   60.6307   45.6565 dc         1 CLA      0.052100
     72 HMB3       80.0767   62.4922   42.6045 dc         1 CLA      0.063600
     73 HMB2       80.6456   60.9661   42.0483 dc         1 CLA      0.063600
     74 HMB1       79.9860   62.1210   40.9032 dc         1 CLA      0.063600
     75 HMA3       80.7233   57.8049   39.0210 dc         1 CLA      0.058300
     76 HMA2       79.8688   56.3149   38.9111 dc         1 CLA      0.058300
     77 HMA1       80.6280   57.0464   37.5015 dc         1 CLA      0.058300
     78 HED3       76.5428   52.1440   39.0005 dc         1 CLA      0.079300
     79 HED2       77.0376   52.1849   37.4246 dc         1 CLA      0.079300
     80 HED1       77.6769   53.5314   38.4027 dc         1 CLA      0.079300
     81 HBC3       71.7016   55.9568   43.3668 dc         1 CLA      0.016300
     82 HBC2       71.2247   56.1391   45.0537 dc         1 CLA      0.016300
     83 HBC1       70.0127   55.8320   43.8140 dc         1 CLA      0.016300
     84 HBB2       79.1295   62.2427   46.0375 da         1 CLA      0.183000
     85 HBB1       79.8782   61.3094   44.5253 da         1 CLA      0.183000
     86 HBA2       78.8082   58.4700   33.8592 dc         1 CLA      0.029400
     87 HBA1       79.7955   58.4952   35.2333 dc         1 CLA      0.029400
     88 HAC2       70.4167   58.4296   44.7574 dc         1 CLA      0.029300
     89 HAC1       69.9248   58.1903   43.0177 dc         1 CLA      0.029300
     90 HAA2       77.0845   57.2348   35.0204 dc         1 CLA      0.028700
     91 HAA1       77.2661   58.7863   35.5958 dc         1 CLA      0.028700
     92 H203       83.2201   60.1425   48.2418 dc         1 CLA      0.065600
     93 H202       84.7189   60.8232   48.8013 dc         1 CLA      0.065600
     94 H201       83.2653   61.3931   49.5232 dc         1 CLA      0.065600
     95 H193       82.0331   63.4606   46.6641 dc         1 CLA      0.065600
     96 H192       81.5622   61.8249   47.1423 dc         1 CLA      0.065600
     97 H191       81.8460   63.0172   48.3836 dc         1 CLA      0.065600
     98 H172       85.4528   61.4164   46.5931 dc         1 CLA      0.027600
     99 H171       84.6904   62.7012   45.8846 dc         1 CLA      0.027600
    100 H162       82.9426   60.9510   44.9954 dc         1 CLA      0.002900
    101 H161       83.7718   59.6968   46.0437 dc         1 CLA      0.002900
    102 H152       85.8877   60.3729   44.7127 dc         1 CLA      0.029100
    103 H151       84.8141   61.1366   43.5811 dc         1 CLA      0.029100
    104 H143       84.4605   57.6481   45.1415 dc         1 CLA      0.063600
    105 H142       85.0269   56.9765   43.5871 dc         1 CLA      0.063600
    106 H141       86.0634   57.9266   44.6898 dc         1 CLA      0.063600
    107 H122       83.2412   59.9519   42.1786 dc         1 CLA      0.032500
    108 H121       82.5327   58.9829   43.5246 dc         1 CLA      0.032500
    109 H112       82.0686   58.2071   41.0886 dc         1 CLA      0.006600
    110 H111       82.9215   57.0908   42.1824 dc         1 CLA      0.006600
    111 H102       85.0460   57.7308   40.9904 dc         1 CLA      0.024100
    112 H101       84.1795   58.9781   40.3308 dc         1 CLA      0.024100
    113 HHD        71.0482   57.0761   41.1054 da         1 CLA      0.174300
    114 HHC        75.3783   61.0705   44.3472 da         1 CLA      0.136800
    115 HHB        79.6103   60.0101   39.7460 da         1 CLA      0.138300
    116 HBD        75.0399   56.1377   35.4468 dc         1 CLA      0.107700
    117 HAB        76.9704   62.4190   44.9445 da         1 CLA      0.155200
    118 H93        85.9451   56.9243   38.4509 dc         1 CLA      0.069500
    119 H92        84.6019   57.1678   37.2862 dc         1 CLA      0.069500
    120 H91        85.1942   58.4490   38.3285 dc         1 CLA      0.069500
    121 H8         82.9151   57.4876   38.8700 dc         1 CLA      0.029300
    122 H72        83.1604   55.3182   40.4160 dc         1 CLA      0.044400
    123 H71        84.8476   55.3532   40.0467 dc         1 CLA      0.044400
    124 H62        83.6856   53.6112   38.8028 dc         1 CLA      0.015600
    125 H61        84.6890   54.6412   37.8640 dc         1 CLA      0.015600
    126 H52        82.6690   55.7703   37.0887 dc         1 CLA      0.033200
    127 H51        81.5641   55.1311   38.2723 dc         1 CLA      0.033200
    128 H43        84.0290   52.6750   36.3837 dc         1 CLA      0.037000
    129 H42        82.9494   51.9966   37.5453 dc         1 CLA      0.037000
    130 H41        82.6460   51.7562   35.8151 dc         1 CLA      0.037000
    131 H3A        79.2963   58.9825   37.5060 dc         1 CLA      0.041100
    132 H2A        78.1488   56.1636   37.1389 dc         1 CLA      0.083100
    133 H2         80.0993   53.2849   36.7535 da         1 CLA      0.180900
    134 H18        84.1030   63.2052   48.0590 dc         1 CLA     -0.003900
    135 H13        85.4343   59.1622   42.5737 dc         1 CLA      0.019700
    136 H12        79.5479   54.0807   34.5074 dc         1 CLA      0.120400
    137 H11        81.2869   54.4963   34.2826 dc         1 CLA      0.120400
    138 C1         66.7811   62.6762   51.4403 Z1         2 LUT      0.509236
    139 C2         66.6190   64.0209   52.2730 Z2         2 LUT     -0.434695
    140 C3         65.5152   65.0175   51.9813 Z3         2 LUT      0.437453
    141 O3         65.9682   66.3921   51.9674 S1         2 LUT     -0.547129
    142 C4         64.9387   64.7042   50.6759 Z4         2 LUT     -0.468603
    143 C5         65.7697   64.0384   49.6166 Z5         2 LUT      0.279246
    144 C6         66.4629   62.8970   49.9500 Z6         2 LUT     -0.305473
    145 C7         67.4131   62.2660   48.9916 Z7         2 LUT      0.069402
    146 C8         68.1705   62.8360   48.0377 Z8         2 LUT     -0.191631
    147 C9         68.9122   62.3714   46.8986 Z9         2 LUT      0.196698
    148 C10        69.8048   63.1578   46.3257 Y1         2 LUT     -0.208611
    149 C11        70.4483   62.9610   45.0341 Y2         2 LUT      0.030784
    150 C12        71.5175   63.5896   44.6006 Y3         2 LUT     -0.220316
    151 C13        72.3288   63.4755   43.4087 Y4         2 LUT      0.215937
    152 C14        73.5530   64.1102   43.3922 Y5         2 LUT     -0.185793
    153 C15        74.6124   64.1033   42.3886 Y6         2 LUT     -0.057835
    154 C16        65.7095   61.7144   52.0680 Y7         2 LUT     -0.405615
    155 C17        68.1553   62.0604   51.7438 Y7         2 LUT     -0.405615
    156 C18        65.6392   64.6365   48.2796 Y9         2 LUT     -0.369639
    157 C19        68.6273   60.9141   46.3922 W1         2 LUT     -0.333362
    158 C20        71.6459   62.7607   42.2175 W2         2 LUT     -0.323439
    159 C21        86.4369   64.9135   36.1598 Z1         2 LUT      0.406104
    160 C22        87.1017   64.5694   34.8002 Z2         2 LUT     -0.404965
    161 C23        86.9796   65.4445   33.5199 Z3         2 LUT      0.391255
    162 O23        87.6199   64.8945   32.3494 S1         2 LUT     -0.528210
    163 C24        85.4757   65.8599   33.4002 W6         2 LUT     -0.258361
    164 C25        84.5969   65.7676   34.3477 Z5         2 LUT      0.133546
    165 C26        84.8643   65.0669   35.7559 W8         2 LUT     -0.147008
    166 C27        84.0017   65.8240   36.8355 Z7         2 LUT      0.023843
    167 C28        82.8372   65.3919   37.4075 Z8         2 LUT     -0.216987
    168 C29        82.1252   65.9892   38.5246 Z9         2 LUT      0.206524
    169 C30        80.9217   65.3799   38.8910 Y1         2 LUT     -0.215556
    170 C31        80.1655   65.7798   40.0855 Y2         2 LUT      0.025142
    171 C32        79.0930   64.9759   40.4770 Y3         2 LUT     -0.212209
    172 C33        78.2322   65.2174   41.5869 Y4         2 LUT      0.240937
    173 C34        76.9502   64.5976   41.6247 Y5         2 LUT     -0.218862
    174 C35        75.8379   64.6826   42.6288 Y6         2 LUT     -0.023547
    175 C36        87.1395   66.1716   36.7221 Y7         2 LUT     -0.393485
    176 C37        86.7755   63.7901   37.2029 Y7         2 LUT     -0.393485
    177 C38        83.1055   66.0506   33.9913 Y9         2 LUT     -0.387526
    178 C39        82.7486   67.1727   39.2591 W1         2 LUT     -0.322618
    179 C40        78.7662   66.0713   42.6458 W2         2 LUT     -0.358472
    180 H403       78.9003   67.1008   42.3880 R7         2 LUT      0.097720
    181 H402       78.0786   66.2445   43.4971 R7         2 LUT      0.097720
    182 H401       79.6924   65.7203   43.0007 R7         2 LUT      0.097720
    183 H393       83.7799   66.9846   39.4745 R4         2 LUT      0.082505
    184 H392       82.6801   68.0185   38.5798 R4         2 LUT      0.082505
    185 H391       82.2869   67.3626   40.2061 R4         2 LUT      0.082505
    186 H383       82.4221   65.4629   34.5728 R1         2 LUT      0.104030
    187 H382       82.8612   67.0476   34.1930 R1         2 LUT      0.104030
    188 H381       82.9075   65.8664   32.9219 R1         2 LUT      0.104030
    189 H373       86.4700   64.1195   38.2671 T4         2 LUT      0.089537
    190 H372       86.2533   62.8282   37.0250 T4         2 LUT      0.089537
    191 H371       87.8894   63.6133   37.3978 T4         2 LUT      0.089537
    192 H363       87.1452   66.9566   35.9309 T4         2 LUT      0.089537
    193 H362       86.5461   66.4335   37.5638 T4         2 LUT      0.089537
    194 H361       88.1928   66.0956   37.1077 T4         2 LUT      0.089537
    195 H222       88.1982   64.4130   34.9933 U2         2 LUT      0.127376
    196 H221       86.6951   63.6249   34.4504 U2         2 LUT      0.127376
    197 H203       72.2328   62.8602   41.3215 R7         2 LUT      0.087068
    198 H202       71.6446   61.7092   42.2827 R7         2 LUT      0.087068
    199 H201       70.6668   63.0412   41.9226 R7         2 LUT      0.087068
    200 H193       67.8236   60.4168   46.8479 R4         2 LUT      0.089716
    201 H192       68.1833   60.9782   45.3640 R4         2 LUT      0.089716
    202 H191       69.5124   60.2435   46.4809 R4         2 LUT      0.089716
    203 H183       66.4153   65.4566   48.1444 R1         2 LUT      0.094572
    204 H182       65.7419   63.9294   47.5031 R1         2 LUT      0.094572
    205 H181       64.7175   65.1095   48.1649 R1         2 LUT      0.094572
    206 H173       68.3197   61.0501   51.3313 T4         2 LUT      0.093752
    207 H172       68.9262   62.7671   51.3473 T4         2 LUT      0.093752
    208 H171       68.3148   61.9612   52.8349 T4         2 LUT      0.093752
    209 H163       64.8506   61.8496   51.3911 T4         2 LUT      0.093752
    210 H162       65.9964   60.6463   52.0195 T4         2 LUT      0.093752
    211 H161       65.4294   61.9698   53.1104 T4         2 LUT      0.093752
    212 HO3        65.3383   66.9048   52.4544 Q1         2 LUT      0.300121
    213 H8         68.2485   63.9986   47.9951 U7         2 LUT      0.080784
    214 H7         67.2408   61.2248   48.8857 U6         2 LUT      0.042190
    215 H42        64.1884   64.0115   50.9073 U5         2 LUT      0.145166
    216 H41        64.4177   65.5765   50.2445 U5         2 LUT      0.145166
    217 H35        76.0057   65.1625   43.6096 T3         2 LUT      0.077919
    218 H34        76.6302   63.9670   40.7760 T2         2 LUT      0.073626
    219 H32        78.6831   64.2241   39.8450 T1         2 LUT      0.092510
    220 H31        80.4400   66.6389   40.7101 U9         2 LUT      0.070048
    221 H30        80.5847   64.4796   38.4116 U8         2 LUT      0.085442
    222 H3         64.7521   64.9058   52.7841 U3         2 LUT     -0.031596
    223 H28        82.3830   64.5025   37.0160 U7         2 LUT      0.084728
    224 H27        84.2296   66.8561   37.0971 U6         2 LUT      0.087291
    225 H26        84.5322   63.9914   35.6323 Q6         2 LUT      0.075325
    226 H24        85.1713   66.3904   32.5157 Q5         2 LUT      0.094482
    227 H23        87.4294   66.4585   33.7331 U3         2 LUT     -0.024869
    228 H22        66.6868   63.9161   53.3893 U2         2 LUT      0.127376
    229 H21        67.5187   64.5982   52.0712 U2         2 LUT      0.127376
    230 H15        74.5071   63.5108   41.4563 T3         2 LUT      0.093200
    231 H14        73.7906   64.6414   44.3214 T2         2 LUT      0.068865
    232 H12        71.9438   64.3791   45.2863 T1         2 LUT      0.095507
    233 H11        70.1857   62.0624   44.4321 U9         2 LUT      0.068930
    234 H10        69.9359   64.0742   46.8060 U8         2 LUT      0.083911
    235 H1         87.1971   64.0612   32.0105 Q1         2 LUT      0.297311
@<TRIPOS>BOND
    1     6     1 1
    2     7     2 1
    3     8     3 1
    4     9     4 1
    5    11     4 1
    6    12     6 1
    7    13     9 1
    8    16     9 1
    9    25     5 1
   10    25    16 1
   11    26    10 1
   12    26    17 1
   13    27    18 1
   14    28    14 1
   15    28    19 1
   16    29    12 1
   17    30    13 1
   18    31    24 1
   19    32     1 1
   20    32    25 1
   21    33    21 1
   22    33    26 1
   23    34    22 1
   24    34    27 1
   25    35    23 1
   26    35    28 1
   27    36    12 1
   28    36    24 1
   29    37    13 1
   30    37    15 1
   31    38    31 1
   32    39    20 1
   33    39    32 1
   34    40     2 1
   35    40    33 1
   36    41     3 1
   37    41    34 1
   38    42     4 1
   39    42    35 1
   40    43    38 1
   41    44     5 1
   42    44    17 1
   43    44    39 1
   44    45    10 1
   45    45    18 1
   46    45    40 1
   47    46    19 1
   48    46    41 1
   49    47    14 1
   50    47    16 1
   51    47    42 1
   52    48    38 1
   53    49    48 1
   54    50    49 1
   55    51    50 1
   56    52    51 1
   57    53    51 1
   58    54    53 1
   59    55    54 1
   60    56    55 1
   61    57    56 1
   62    58    56 1
   63    59    58 1
   64    60    59 1
   65    61    60 1
   66    62    61 1
   67    63    61 1
   68    64    27 1
   69    64    46 1
   70    65     5 1
   71    65    10 1
   72    65    64 1
   73    65    14 1
   74    66    23 1
   75    67    23 1
   76    68    23 1
   77    69    22 1
   78    70    22 1
   79    71    22 1
   80    72    21 1
   81    73    21 1
   82    74    21 1
   83    75    20 1
   84    76    20 1
   85    77    20 1
   86    78    15 1
   87    79    15 1
   88    80    15 1
   89    81     8 1
   90    82     8 1
   91    83     8 1
   92    84     7 1
   93    85     7 1
   94    86     6 1
   95    87     6 1
   96    88     3 1
   97    89     3 1
   98    90     1 1
   99    91     1 1
  100    92    63 1
  101    93    63 1
  102    94    63 1
  103    95    62 1
  104    96    62 1
  105    97    62 1
  106    98    60 1
  107    99    60 1
  108   100    59 1
  109   101    59 1
  110   102    58 1
  111   103    58 1
  112   104    57 1
  113   105    57 1
  114   106    57 1
  115   107    55 1
  116   108    55 1
  117   109    54 1
  118   110    54 1
  119   111    53 1
  120   112    53 1
  121   113    19 1
  122   114    18 1
  123   115    17 1
  124   116     9 1
  125   117     2 1
  126   118    52 1
  127   119    52 1
  128   120    52 1
  129   121    51 1
  130   122    50 1
  131   123    50 1
  132   124    49 1
  133   125    49 1
  134   126    48 1
  135   127    48 1
  136   128    43 1
  137   129    43 1
  138   130    43 1
  139   131    39 1
  140   132    32 1
  141   133    31 1
  142   134    61 1
  143   135    56 1
  144   136    24 1
  145   137    24 1
  146   139   138 1
  147   140   139 1
  148   141   140 1
  149   142   140 1
  150   143   142 1
  151   144   138 1
  152   144   143 1
  153   145   144 1
  154   146   145 1
  155   147   146 1
  156   148   147 1
  157   149   148 1
  158   150   149 1
  159   151   150 1
  160   152   151 1
  161   153   152 1
  162   154   138 1
  163   155   138 1
  164   156   143 1
  165   157   147 1
  166   158   151 1
  167   160   159 1
  168   161   160 1
  169   162   161 1
  170   163   161 1
  171   164   163 1
  172   165   159 1
  173   165   164 1
  174   166   165 1
  175   167   166 1
  176   168   167 1
  177   169   168 1
  178   170   169 1
  179   171   170 1
  180   172   171 1
  181   173   172 1
  182   174   153 1
  183   174   173 1
  184   175   159 1
  185   176   159 1
  186   177   164 1
  187   178   168 1
  188   179   172 1
  189   180   179 1
  190   181   179 1
  191   182   179 1
  192   183   178 1
  193   184   178 1
  194   185   178 1
  195   186   177 1
  196   187   177 1
  197   188   177 1
  198   189   176 1
  199   190   176 1
  200   191   176 1
  201   192   175 1
  202   193   175 1
  203   194   175 1
  204   195   160 1
  205   196   160 1
  206   197   158 1
  207   198   158 1
  208   199   158 1
  209   200   157 1
  210   201   157 1
  211   202   157 1
  212   203   156 1
  213   204   156 1
  214   205   156 1
  215   206   155 1
  216   207   155 1
  217   208   155 1
  218   209   154 1
  219   210   154 1
  220   211   154 1
  221   212   141 1
  222   213   146 1
  223   214   145 1
  224   215   142 1
  225   216   142 1
  226   217   174 1
  227   218   173 1
  228   219   171 1
  229   220   170 1
  230   221   169 1
  231   222   140 1
  232   223   167 1
  233   224   166 1
  234   225   165 1
  235   226   163 1
  236   227   161 1
  237   228   139 1
  238   229   139 1
  239   230   153 1
  240   231   152 1
  241   232   150 1
  242   233   149 1
  243   234   148 1
  244   235   162 1
  245   65    153 1
  246   65    174 1
@<TRIPOS>SUBSTRUCTURE
      1 CLA               1 ****               0 ****  **** 
      2 LUT             138 ****               0 ****  **** 
