@<TRIPOS>MOLECULE
Cpptraj generated mol2 file.
  235   246     2     0     0
SMALL
USER_CHARGES


@<TRIPOS>ATOM
      1 CAA        76.5611   57.6425   32.9923 a2         1 CLA     -0.055900
      2 CAB        76.8551   61.1741   42.0557 c8         1 CLA     -0.148500
      3 CAC        70.0480   56.8276   41.8276 a2         1 CLA     -0.012600
      4 CAD        72.3945   55.0025   34.3387 ck         1 CLA      0.398800
      5 NA         75.6797   57.8359   36.5147 ns         1 CLA     -0.225500
      6 CBA        77.7595   57.2980   31.9689 a2         1 CLA     -0.135000
      7 CBB        77.9564   61.0306   42.8081 c0         1 CLA     -0.395200
      8 CBC        69.9811   55.3330   41.6345 a3         1 CLA     -0.037700
      9 CBD        73.8423   55.5151   34.0320 a1         1 CLA     -0.053900
     10 NB         75.5916   59.3552   39.0855 nm         1 CLA     -0.295700
     11 OBD        71.8029   54.2219   33.5539 o2         1 CLA     -0.494600
     12 CGA        78.1076   55.8635   31.5702 c4         1 CLA      0.827000
     13 CGD        74.8257   54.3062   33.6603 c4         1 CLA      0.655300
     14 ND         72.8585   56.8912   37.1467 nm         1 CLA     -0.291600
     15 CED        75.8831   52.1003   34.1537 a3         1 CLA      0.005400
     16 CHA        74.2197   56.4552   35.1740 cs         1 CLA     -0.123800
     17 CHB        77.4611   59.2990   37.4465 aa         1 CLA     -0.291900
     18 CHC        74.3365   59.5185   41.2357 aa         1 CLA     -0.090400
     19 CHD        71.1802   56.7196   38.8481 aa         1 CLA     -0.052000
     20 CMA        79.0374   57.0076   35.8317 a3         1 CLA     -0.230700
     21 CMB        78.8454   61.0848   39.5207 a3         1 CLA     -0.180800
     22 CMC        72.1721   58.9776   43.3603 a3         1 CLA     -0.134000
     23 CMD        69.5921   55.0098   36.6534 a3         1 CLA     -0.141100
     24 C1         79.2479   53.9230   32.4036 a2         1 CLA      0.023000
     25 C1A        75.4272   57.1334   35.3705 ac         1 CLA     -0.015100
     26 C1B        76.8201   59.8261   38.6252 cr         1 CLA      0.054700
     27 C1C        73.2106   58.7343   40.8910 cn         1 CLA     -0.005600
     28 C1D        71.6599   56.4344   37.5650 ap         1 CLA     -0.047300
     29 O1A        77.7557   55.3402   30.5381 o2         1 CLA     -0.610800
     30 O1D        75.6171   54.4257   32.7367 o2         1 CLA     -0.558200
     31 C2         79.9947   53.6517   33.6683 c8         1 CLA     -0.325100
     32 C2A        76.6339   57.0205   34.4010 a1         1 CLA      0.098600
     33 C2B        77.5011   60.6046   39.6373 cb         1 CLA      0.088500
     34 C2C        72.1531   58.4406   41.8727 cb         1 CLA      0.053700
     35 C2D        70.9702   55.6508   36.5423 cb         1 CLA      0.058900
     36 O2A        78.8715   55.3036   32.5273 o1         1 CLA     -0.437200
     37 O2D        74.7035   53.0670   34.3777 o1         1 CLA     -0.357600
     38 C3         80.7201   52.5558   34.0397 c5         1 CLA      0.031200
     39 C3A        77.7395   57.7808   35.3319 a1         1 CLA      0.166800
     40 C3B        76.6344   60.6010   40.7459 cb         1 CLA      0.035000
     41 C3C        71.2164   57.5508   41.2330 cb         1 CLA     -0.089900
     42 C3D        72.0154   55.5343   35.5981 cb         1 CLA     -0.035900
     43 C4         80.1786   51.3037   34.7200 a3         1 CLA     -0.053300
     44 C4A        76.9642   58.3941   36.4774 ac         1 CLA      0.001800
     45 C4B        75.4377   59.8233   40.3582 cn         1 CLA     -0.020900
     46 C4C        71.8098   57.4172   39.8606 cr         1 CLA     -0.044400
     47 C4D        73.1246   56.3573   36.0244 c6         1 CLA     -0.046000
     48 C5         82.2424   52.6248   34.0022 a2         1 CLA     -0.070400
     49 C6         83.0433   53.8634   34.4542 a2         1 CLA      0.043900
     50 C7         82.7227   54.3210   35.9435 a2         1 CLA     -0.150000
     51 C8         83.4005   55.6383   36.3571 a1         1 CLA      0.064200
     52 C9         84.8722   55.8299   35.7969 a3         1 CLA     -0.259300
     53 C10        83.3407   55.7736   37.9065 a2         1 CLA     -0.071900
     54 C11        81.9252   55.7727   38.5363 a2         1 CLA      0.014500
     55 C12        81.8927   56.5931   39.8981 a2         1 CLA     -0.112100
     56 C13        80.5966   56.3596   40.6942 a1         1 CLA      0.089200
     57 C14        79.4045   57.2111   40.2666 a3         1 CLA     -0.239100
     58 C15        80.8604   56.4451   42.1601 a2         1 CLA     -0.102200
     59 C16        81.4907   57.7681   42.6358 a2         1 CLA      0.023900
     60 C17        82.0588   57.6029   44.0868 a2         1 CLA     -0.105700
     61 C18        83.0777   58.6966   44.6380 a1         1 CLA      0.206800
     62 C19        84.3880   58.7120   43.8815 a3         1 CLA     -0.280100
     63 C20        82.3578   59.9926   44.7133 a3         1 CLA     -0.280100
     64 NC         72.9090   58.1671   39.7039 nx         1 CLA     -0.309200
     65 MG         74.1482   58.2332   38.0054 mg         1 CLA      0.895000
     66 HMD3       69.8392   54.1640   37.2544 dc         1 CLA      0.064300
     67 HMD2       68.8266   55.5216   37.2536 dc         1 CLA      0.064300
     68 HMD1       69.2572   54.6924   35.7035 dc         1 CLA      0.064300
     69 HMC3       72.9545   58.4020   43.9390 dc         1 CLA      0.052100
     70 HMC2       72.5570   59.9514   43.3430 dc         1 CLA      0.052100
     71 HMC1       71.2847   58.9501   43.9884 dc         1 CLA      0.052100
     72 HMB3       79.5282   60.2844   39.7792 dc         1 CLA      0.063600
     73 HMB2       78.9626   61.4658   38.4765 dc         1 CLA      0.063600
     74 HMB1       79.1357   61.9382   40.1667 dc         1 CLA      0.063600
     75 HMA3       79.6146   56.6431   34.9925 dc         1 CLA      0.058300
     76 HMA2       79.6245   57.6567   36.4306 dc         1 CLA      0.058300
     77 HMA1       78.8778   56.1801   36.5947 dc         1 CLA      0.058300
     78 HED3       75.7406   51.6750   33.1516 dc         1 CLA      0.079300
     79 HED2       76.7333   52.7899   34.2063 dc         1 CLA      0.079300
     80 HED1       75.8602   51.2771   34.8973 dc         1 CLA      0.079300
     81 HBC3       69.1844   55.0693   40.9010 dc         1 CLA      0.016300
     82 HBC2       70.9306   55.0267   41.1847 dc         1 CLA      0.016300
     83 HBC1       69.7672   54.8392   42.5589 dc         1 CLA      0.016300
     84 HBB2       77.9579   61.5039   43.8022 da         1 CLA      0.183000
     85 HBB1       78.9165   60.5195   42.4878 da         1 CLA      0.183000
     86 HBA2       77.7181   57.9957   31.0953 dc         1 CLA      0.029400
     87 HBA1       78.6114   57.6281   32.6014 dc         1 CLA      0.029400
     88 HAC2       70.1468   56.9374   42.9453 dc         1 CLA      0.029300
     89 HAC1       69.0366   57.1519   41.4917 dc         1 CLA      0.029300
     90 HAA2       75.6021   57.3427   32.5371 dc         1 CLA      0.028700
     91 HAA1       76.5670   58.6962   33.0670 dc         1 CLA      0.028700
     92 H203       82.9649   60.7942   45.1236 dc         1 CLA      0.065600
     93 H202       82.0725   60.2867   43.6435 dc         1 CLA      0.065600
     94 H201       81.3799   59.9158   45.2030 dc         1 CLA      0.065600
     95 H193       84.2376   59.3480   43.0444 dc         1 CLA      0.065600
     96 H192       85.0939   59.0925   44.6364 dc         1 CLA      0.065600
     97 H191       84.7248   57.6997   43.4436 dc         1 CLA      0.065600
     98 H172       81.2698   57.3985   44.8479 dc         1 CLA      0.027600
     99 H171       82.6505   56.6970   44.1259 dc         1 CLA      0.027600
    100 H162       82.2464   58.2457   42.0188 dc         1 CLA      0.002900
    101 H161       80.6611   58.4158   42.6781 dc         1 CLA      0.002900
    102 H152       79.9359   56.2559   42.6956 dc         1 CLA      0.029100
    103 H151       81.5164   55.5795   42.3690 dc         1 CLA      0.029100
    104 H143       78.4494   56.9422   40.7246 dc         1 CLA      0.063600
    105 H142       79.5952   58.2911   40.4267 dc         1 CLA      0.063600
    106 H141       79.3389   57.0009   39.2117 dc         1 CLA      0.063600
    107 H122       82.7108   56.0463   40.4122 dc         1 CLA      0.032500
    108 H121       82.0915   57.7016   39.7587 dc         1 CLA      0.032500
    109 H112       81.1885   56.2898   37.9188 dc         1 CLA      0.006600
    110 H111       81.5975   54.7076   38.7353 dc         1 CLA      0.006600
    111 H102       83.9167   54.9191   38.3117 dc         1 CLA      0.024100
    112 H101       83.7069   56.7103   38.2505 dc         1 CLA      0.024100
    113 HHD        70.2570   56.2720   39.1867 da         1 CLA      0.174300
    114 HHC        74.4970   59.8665   42.2585 da         1 CLA      0.136800
    115 HHB        78.4997   59.6266   37.2686 da         1 CLA      0.138300
    116 HBD        73.6950   56.0276   33.1228 dc         1 CLA      0.107700
    117 HAB        75.9673   61.6605   42.5628 da         1 CLA      0.155200
    118 H93        84.7665   56.0408   34.7529 dc         1 CLA      0.069500
    119 H92        85.3135   56.7534   36.2001 dc         1 CLA      0.069500
    120 H91        85.4516   54.9304   35.9599 dc         1 CLA      0.069500
    121 H8         82.9110   56.5408   36.0109 dc         1 CLA      0.029300
    122 H72        81.6575   54.3294   36.2258 dc         1 CLA      0.044400
    123 H71        83.1631   53.5620   36.5330 dc         1 CLA      0.044400
    124 H62        84.0617   53.8147   34.2752 dc         1 CLA      0.015600
    125 H61        82.6218   54.6331   33.8293 dc         1 CLA      0.015600
    126 H52        82.7012   51.7128   34.4836 dc         1 CLA      0.033200
    127 H51        82.6118   52.4973   32.9424 dc         1 CLA      0.033200
    128 H43        79.1141   51.3213   34.5521 dc         1 CLA      0.037000
    129 H42        80.6239   50.4490   34.1448 dc         1 CLA      0.037000
    130 H41        80.5210   51.2191   35.7562 dc         1 CLA      0.037000
    131 H3A        78.1905   58.6914   34.7950 dc         1 CLA      0.041100
    132 H2A        76.9098   55.9562   34.4464 dc         1 CLA      0.083100
    133 H2         79.9634   54.4085   34.4296 da         1 CLA      0.180900
    134 H18        83.2928   58.4266   45.6885 dc         1 CLA     -0.003900
    135 H13        80.2579   55.3454   40.4391 dc         1 CLA      0.019700
    136 H12        78.3026   53.3449   32.4072 dc         1 CLA      0.120400
    137 H11        79.8523   53.9174   31.5082 dc         1 CLA      0.120400
    138 C1         67.1343   61.2323   49.6279 Z1         2 LUT      0.509236
    139 C2         67.1672   62.5739   50.3927 Z2         2 LUT     -0.434695
    140 C3         65.9102   63.3360   50.4916 Z3         2 LUT      0.437453
    141 O3         66.1603   64.6305   50.9804 S1         2 LUT     -0.547129
    142 C4         65.0863   63.3554   49.2898 Z4         2 LUT     -0.468603
    143 C5         65.7446   62.6671   48.0863 Z5         2 LUT      0.279246
    144 C6         66.6206   61.7114   48.2347 Z6         2 LUT     -0.305473
    145 C7         67.5735   61.1467   47.1623 Z7         2 LUT      0.069402
    146 C8         68.2041   61.7679   46.1079 Z8         2 LUT     -0.191631
    147 C9         68.9022   61.2641   44.8728 Z9         2 LUT      0.196698
    148 C10        69.7253   62.0882   44.1395 Y1         2 LUT     -0.208611
    149 C11        70.2667   62.0488   42.8257 Y2         2 LUT      0.030784
    150 C12        71.4929   62.7404   42.5472 Y3         2 LUT     -0.220316
    151 C13        72.3091   62.7016   41.2935 Y4         2 LUT      0.215937
    152 C14        73.4577   63.3824   41.3435 Y5         2 LUT     -0.185793
    153 C15        74.5343   63.3879   40.3992 Y6         2 LUT     -0.057835
    154 C16        66.1635   60.3418   50.5027 Y7         2 LUT     -0.405615
    155 C17        68.6513   60.7161   49.7599 Y7         2 LUT     -0.405615
    156 C18        65.4188   63.3165   46.7654 Y9         2 LUT     -0.369639
    157 C19        68.3199   59.9566   44.2335 W1         2 LUT     -0.333362
    158 C20        71.7511   61.9597   40.1616 W2         2 LUT     -0.323439
    159 C21        85.5496   64.1478   34.1227 Z1         2 LUT      0.406104
    160 C22        86.4515   63.7150   32.9964 Z2         2 LUT     -0.404965
    161 C23        86.7065   64.7510   31.9349 Z3         2 LUT      0.391255
    162 O23        87.6168   64.0872   31.0365 S1         2 LUT     -0.528210
    163 C24        85.4321   65.4492   31.5212 W6         2 LUT     -0.258361
    164 C25        84.3343   65.4878   32.2417 Z5         2 LUT      0.133546
    165 C26        84.1566   64.8161   33.6585 W8         2 LUT     -0.147008
    166 C27        83.4487   65.5975   34.6916 Z7         2 LUT      0.023843
    167 C28        82.4360   65.0872   35.3809 Z8         2 LUT     -0.216987
    168 C29        81.7830   65.5674   36.5554 Z9         2 LUT      0.206524
    169 C30        80.8013   64.8147   37.0987 Y1         2 LUT     -0.215556
    170 C31        80.1834   65.0183   38.3231 Y2         2 LUT      0.025142
    171 C32        78.9115   64.5119   38.5239 Y3         2 LUT     -0.212209
    172 C33        78.1311   64.6921   39.7082 Y4         2 LUT      0.240937
    173 C34        76.8399   64.0728   39.7258 Y5         2 LUT     -0.218862
    174 C35        75.7591   64.0695   40.6246 Y6         2 LUT     -0.023547
    175 C36        86.3143   65.1642   34.9372 Y7         2 LUT     -0.393485
    176 C37        85.4357   62.9335   35.0245 Y7         2 LUT     -0.393485
    177 C38        83.2344   66.4551   31.7242 Y9         2 LUT     -0.387526
    178 C39        82.1499   66.8932   37.2072 W1         2 LUT     -0.322618
    179 C40        78.5419   65.8161   40.6730 W2         2 LUT     -0.358472
    180 H403       78.6622   66.7809   40.2123 R7         2 LUT      0.097720
    181 H402       77.8967   65.8345   41.5361 R7         2 LUT      0.097720
    182 H401       79.4865   65.5437   41.1100 R7         2 LUT      0.097720
    183 H393       81.2477   67.5755   37.1917 R4         2 LUT      0.082505
    184 H392       82.2635   66.5497   38.2165 R4         2 LUT      0.082505
    185 H391       82.9712   67.4328   36.7372 R4         2 LUT      0.082505
    186 H383       83.6198   67.0895   30.9176 R1         2 LUT      0.104030
    187 H382       82.4169   65.8354   31.3690 R1         2 LUT      0.104030
    188 H381       82.8848   67.1394   32.5224 R1         2 LUT      0.104030
    189 H373       85.2407   62.1150   34.3587 T4         2 LUT      0.089537
    190 H372       86.3017   62.6910   35.7131 T4         2 LUT      0.089537
    191 H371       84.6162   63.0723   35.7556 T4         2 LUT      0.089537
    192 H363       87.2238   64.7377   35.2439 T4         2 LUT      0.089537
    193 H362       86.5718   66.1115   34.4326 T4         2 LUT      0.089537
    194 H361       85.8412   65.2947   35.9368 T4         2 LUT      0.089537
    195 H222       87.4127   63.2655   33.3080 U2         2 LUT      0.127376
    196 H221       86.0361   62.8346   32.5353 U2         2 LUT      0.127376
    197 H203       72.4211   61.9794   39.2723 R7         2 LUT      0.087068
    198 H202       71.5589   60.9227   40.4597 R7         2 LUT      0.087068
    199 H201       70.7873   62.3828   39.9234 R7         2 LUT      0.087068
    200 H193       67.6701   59.3055   44.8492 R4         2 LUT      0.089716
    201 H192       67.8131   60.2586   43.2687 R4         2 LUT      0.089716
    202 H191       69.0569   59.2756   43.8188 R4         2 LUT      0.089716
    203 H183       64.3780   63.6823   46.7558 R1         2 LUT      0.094572
    204 H182       66.2016   64.1152   46.4787 R1         2 LUT      0.094572
    205 H181       65.4772   62.6196   45.8612 R1         2 LUT      0.094572
    206 H173       69.3189   61.2911   49.1939 T4         2 LUT      0.093752
    207 H172       68.9970   60.9027   50.8152 T4         2 LUT      0.093752
    208 H171       68.7735   59.5923   49.6613 T4         2 LUT      0.093752
    209 H163       66.5081   60.4147   51.5844 T4         2 LUT      0.093752
    210 H162       65.1182   60.6700   50.3947 T4         2 LUT      0.093752
    211 H161       66.1740   59.2927   50.1560 T4         2 LUT      0.093752
    212 HO3        65.6723   64.8152   51.8156 Q1         2 LUT      0.300121
    213 H8         68.1373   62.8628   46.1224 U7         2 LUT      0.080784
    214 H7         67.6942   60.0911   47.2579 U6         2 LUT      0.042190
    215 H42        64.0928   63.0003   49.4120 U5         2 LUT      0.145166
    216 H41        64.8348   64.3524   49.1126 U5         2 LUT      0.145166
    217 H35        75.8809   64.6527   41.5348 T3         2 LUT      0.077919
    218 H34        76.5803   63.6785   38.7923 T2         2 LUT      0.073626
    219 H32        78.3855   63.9975   37.6752 T1         2 LUT      0.092510
    220 H31        80.6047   65.6009   39.1322 U9         2 LUT      0.070048
    221 H30        80.4470   63.9421   36.5107 U8         2 LUT      0.085442
    222 H3         65.1911   62.7951   51.2111 U3         2 LUT     -0.031596
    223 H28        82.0746   64.0746   35.1149 U7         2 LUT      0.084728
    224 H27        83.9177   66.5907   34.9694 U6         2 LUT      0.087291
    225 H26        83.4664   63.9412   33.4911 Q6         2 LUT      0.075325
    226 H24        85.5197   66.0414   30.7178 Q5         2 LUT      0.094482
    227 H23        87.2574   65.5923   32.3417 U3         2 LUT     -0.024869
    228 H22        67.3881   62.4891   51.3873 U2         2 LUT      0.127376
    229 H21        68.0008   63.2250   50.0119 U2         2 LUT      0.127376
    230 H15        74.4925   62.7665   39.4664 T3         2 LUT      0.093200
    231 H14        73.7230   63.8876   42.3113 T2         2 LUT      0.068865
    232 H12        71.7587   63.3974   43.3786 T1         2 LUT      0.095507
    233 H11        69.7725   61.4792   42.0153 U9         2 LUT      0.068930
    234 H10        69.9666   63.0118   44.7144 U8         2 LUT      0.083911
    235 H1         87.2407   64.0638   30.1500 Q1         2 LUT      0.297311
@<TRIPOS>BOND
    1     6     1 1
    2     7     2 1
    3     8     3 1
    4     9     4 1
    5    11     4 1
    6    12     6 1
    7    13     9 1
    8    16     9 1
    9    25     5 1
   10    25    16 1
   11    26    10 1
   12    26    17 1
   13    27    18 1
   14    28    14 1
   15    28    19 1
   16    29    12 1
   17    30    13 1
   18    31    24 1
   19    32     1 1
   20    32    25 1
   21    33    21 1
   22    33    26 1
   23    34    22 1
   24    34    27 1
   25    35    23 1
   26    35    28 1
   27    36    12 1
   28    36    24 1
   29    37    13 1
   30    37    15 1
   31    38    31 1
   32    39    20 1
   33    39    32 1
   34    40     2 1
   35    40    33 1
   36    41     3 1
   37    41    34 1
   38    42     4 1
   39    42    35 1
   40    43    38 1
   41    44     5 1
   42    44    17 1
   43    44    39 1
   44    45    10 1
   45    45    18 1
   46    45    40 1
   47    46    19 1
   48    46    41 1
   49    47    14 1
   50    47    16 1
   51    47    42 1
   52    48    38 1
   53    49    48 1
   54    50    49 1
   55    51    50 1
   56    52    51 1
   57    53    51 1
   58    54    53 1
   59    55    54 1
   60    56    55 1
   61    57    56 1
   62    58    56 1
   63    59    58 1
   64    60    59 1
   65    61    60 1
   66    62    61 1
   67    63    61 1
   68    64    27 1
   69    64    46 1
   70    65     5 1
   71    65    10 1
   72    65    64 1
   73    65    14 1
   74    66    23 1
   75    67    23 1
   76    68    23 1
   77    69    22 1
   78    70    22 1
   79    71    22 1
   80    72    21 1
   81    73    21 1
   82    74    21 1
   83    75    20 1
   84    76    20 1
   85    77    20 1
   86    78    15 1
   87    79    15 1
   88    80    15 1
   89    81     8 1
   90    82     8 1
   91    83     8 1
   92    84     7 1
   93    85     7 1
   94    86     6 1
   95    87     6 1
   96    88     3 1
   97    89     3 1
   98    90     1 1
   99    91     1 1
  100    92    63 1
  101    93    63 1
  102    94    63 1
  103    95    62 1
  104    96    62 1
  105    97    62 1
  106    98    60 1
  107    99    60 1
  108   100    59 1
  109   101    59 1
  110   102    58 1
  111   103    58 1
  112   104    57 1
  113   105    57 1
  114   106    57 1
  115   107    55 1
  116   108    55 1
  117   109    54 1
  118   110    54 1
  119   111    53 1
  120   112    53 1
  121   113    19 1
  122   114    18 1
  123   115    17 1
  124   116     9 1
  125   117     2 1
  126   118    52 1
  127   119    52 1
  128   120    52 1
  129   121    51 1
  130   122    50 1
  131   123    50 1
  132   124    49 1
  133   125    49 1
  134   126    48 1
  135   127    48 1
  136   128    43 1
  137   129    43 1
  138   130    43 1
  139   131    39 1
  140   132    32 1
  141   133    31 1
  142   134    61 1
  143   135    56 1
  144   136    24 1
  145   137    24 1
  146   139   138 1
  147   140   139 1
  148   141   140 1
  149   142   140 1
  150   143   142 1
  151   144   138 1
  152   144   143 1
  153   145   144 1
  154   146   145 1
  155   147   146 1
  156   148   147 1
  157   149   148 1
  158   150   149 1
  159   151   150 1
  160   152   151 1
  161   153   152 1
  162   154   138 1
  163   155   138 1
  164   156   143 1
  165   157   147 1
  166   158   151 1
  167   160   159 1
  168   161   160 1
  169   162   161 1
  170   163   161 1
  171   164   163 1
  172   165   159 1
  173   165   164 1
  174   166   165 1
  175   167   166 1
  176   168   167 1
  177   169   168 1
  178   170   169 1
  179   171   170 1
  180   172   171 1
  181   173   172 1
  182   174   153 1
  183   174   173 1
  184   175   159 1
  185   176   159 1
  186   177   164 1
  187   178   168 1
  188   179   172 1
  189   180   179 1
  190   181   179 1
  191   182   179 1
  192   183   178 1
  193   184   178 1
  194   185   178 1
  195   186   177 1
  196   187   177 1
  197   188   177 1
  198   189   176 1
  199   190   176 1
  200   191   176 1
  201   192   175 1
  202   193   175 1
  203   194   175 1
  204   195   160 1
  205   196   160 1
  206   197   158 1
  207   198   158 1
  208   199   158 1
  209   200   157 1
  210   201   157 1
  211   202   157 1
  212   203   156 1
  213   204   156 1
  214   205   156 1
  215   206   155 1
  216   207   155 1
  217   208   155 1
  218   209   154 1
  219   210   154 1
  220   211   154 1
  221   212   141 1
  222   213   146 1
  223   214   145 1
  224   215   142 1
  225   216   142 1
  226   217   174 1
  227   218   173 1
  228   219   171 1
  229   220   170 1
  230   221   169 1
  231   222   140 1
  232   223   167 1
  233   224   166 1
  234   225   165 1
  235   226   163 1
  236   227   161 1
  237   228   139 1
  238   229   139 1
  239   230   153 1
  240   231   152 1
  241   232   150 1
  242   233   149 1
  243   234   148 1
  244   235   162 1
  245   65    153 1
  246   65    174 1
@<TRIPOS>SUBSTRUCTURE
      1 CLA               1 ****               0 ****  **** 
      2 LUT             138 ****               0 ****  **** 
