@<TRIPOS>MOLECULE
Cpptraj generated mol2 file.
  235   246     2     0     0
SMALL
USER_CHARGES


@<TRIPOS>ATOM
      1 CAA        78.6355   57.7003   35.3233 a2         1 CLA     -0.055900
      2 CAB        78.6214   61.5070   44.3460 c8         1 CLA     -0.148500
      3 CAC        71.6924   57.2125   43.7687 a2         1 CLA     -0.012600
      4 CAD        74.3160   55.2988   36.3324 ck         1 CLA      0.398800
      5 NA         77.5037   58.0105   38.7686 ns         1 CLA     -0.225500
      6 CBA        79.9003   57.5617   34.5269 a2         1 CLA     -0.135000
      7 CBB        79.6619   61.3318   45.1386 c0         1 CLA     -0.395200
      8 CBC        72.0179   55.7361   43.8551 a3         1 CLA     -0.037700
      9 CBD        75.8357   55.7807   36.0674 a1         1 CLA     -0.053900
     10 NB         77.3383   59.7417   41.2704 nm         1 CLA     -0.295700
     11 OBD        73.6421   54.6599   35.5084 o2         1 CLA     -0.494600
     12 CGA        80.4643   56.1120   34.2609 c4         1 CLA      0.827000
     13 CGD        76.7141   54.6739   35.7380 c4         1 CLA      0.655300
     14 ND         74.7725   57.1031   39.3630 nm         1 CLA     -0.291600
     15 CED        77.1273   52.3907   36.1550 a3         1 CLA      0.005400
     16 CHA        76.2232   56.6174   37.3105 cs         1 CLA     -0.123800
     17 CHB        79.2793   59.4309   39.8211 aa         1 CLA     -0.291900
     18 CHC        75.9934   59.9259   43.3628 aa         1 CLA     -0.090400
     19 CHD        72.9337   57.0079   40.8865 aa         1 CLA     -0.052000
     20 CMA        80.9863   57.3394   38.1983 a3         1 CLA     -0.230700
     21 CMB        80.7996   61.1177   41.9452 a3         1 CLA     -0.180800
     22 CMC        73.5703   59.2805   45.3343 a3         1 CLA     -0.134000
     23 CMD        71.5837   55.2826   38.5023 a3         1 CLA     -0.141100
     24 C1         81.2085   54.1348   35.2999 a2         1 CLA      0.023000
     25 C1A        77.3650   57.3479   37.6303 ac         1 CLA     -0.015100
     26 C1B        78.6641   59.9446   40.9396 cr         1 CLA      0.054700
     27 C1C        74.9109   59.1674   42.9823 cn         1 CLA     -0.005600
     28 C1D        73.4913   56.7275   39.6046 ap         1 CLA     -0.047300
     29 O1A        80.5124   55.5659   33.1609 o2         1 CLA     -0.610800
     30 O1D        77.7001   54.6801   34.9823 o2         1 CLA     -0.558200
     31 C2         80.8518   53.5135   36.5926 c8         1 CLA     -0.325100
     32 C2A        78.6875   57.3367   36.8467 a1         1 CLA      0.098600
     33 C2B        79.2957   60.7923   41.9373 cb         1 CLA      0.088500
     34 C2C        73.7804   58.8373   43.9029 cb         1 CLA      0.053700
     35 C2D        72.9650   55.8414   38.5789 cb         1 CLA      0.058900
     36 O2A        80.6294   55.4301   35.4215 o1         1 CLA     -0.437200
     37 O2D        76.2811   53.5507   36.3817 o1         1 CLA     -0.357600
     38 C3         81.6944   52.8316   37.3881 c5         1 CLA      0.031200
     39 C3A        79.6767   58.0617   37.7464 a1         1 CLA      0.166800
     40 C3B        78.3904   60.9245   43.0030 cb         1 CLA      0.035000
     41 C3C        72.9494   57.9576   43.1787 cb         1 CLA     -0.089900
     42 C3D        73.9878   55.7532   37.6344 cb         1 CLA     -0.035900
     43 C4         81.8905   51.2942   37.3035 a3         1 CLA     -0.053300
     44 C4A        78.8246   58.4596   38.8847 ac         1 CLA      0.001800
     45 C4B        77.1698   60.2365   42.5355 cn         1 CLA     -0.020900
     46 C4C        73.5368   57.8019   41.8437 cr         1 CLA     -0.044400
     47 C4D        75.0918   56.5101   38.1389 c6         1 CLA     -0.046000
     48 C5         82.3238   53.5170   38.5874 a2         1 CLA     -0.070400
     49 C6         83.3664   54.5297   38.3304 a2         1 CLA      0.043900
     50 C7         83.6408   55.2298   39.6523 a2         1 CLA     -0.150000
     51 C8         84.3309   56.5692   39.5372 a1         1 CLA      0.064200
     52 C9         85.5078   56.5117   38.5775 a3         1 CLA     -0.259300
     53 C10        84.5982   57.3076   40.8604 a2         1 CLA     -0.071900
     54 C11        83.4395   57.3068   41.9526 a2         1 CLA      0.014500
     55 C12        83.5917   58.4799   42.9916 a2         1 CLA     -0.112100
     56 C13        84.6922   58.2873   44.0850 a1         1 CLA      0.089200
     57 C14        84.3680   57.1247   45.0654 a3         1 CLA     -0.239100
     58 C15        84.9422   59.6206   44.8442 a2         1 CLA     -0.102200
     59 C16        83.7914   60.5237   45.3705 a2         1 CLA      0.023900
     60 C17        84.2014   61.5736   46.4289 a2         1 CLA     -0.105700
     61 C18        83.0555   62.5354   46.9829 a1         1 CLA      0.206800
     62 C19        82.1767   61.7257   47.9656 a3         1 CLA     -0.280100
     63 C20        83.6424   63.7732   47.7473 a3         1 CLA     -0.280100
     64 NC         74.7861   58.4865   41.7850 nx         1 CLA     -0.309200
     65 MG         76.0191   58.4932   40.2302 mg         1 CLA      0.895000
     66 HMD3       70.9585   56.0307   38.0661 dc         1 CLA      0.064300
     67 HMD2       71.5597   54.3350   37.8260 dc         1 CLA      0.064300
     68 HMD1       71.1512   54.9785   39.4398 dc         1 CLA      0.064300
     69 HMC3       74.2775   60.0945   45.6017 dc         1 CLA      0.052100
     70 HMC2       72.6010   59.7235   45.5144 dc         1 CLA      0.052100
     71 HMC1       73.7357   58.4204   45.9559 dc         1 CLA      0.052100
     72 HMB3       81.1249   60.1003   42.2693 dc         1 CLA      0.063600
     73 HMB2       81.0720   61.4044   40.9166 dc         1 CLA      0.063600
     74 HMB1       81.0318   61.9197   42.6407 dc         1 CLA      0.063600
     75 HMA3       81.2918   57.9151   39.0761 dc         1 CLA      0.058300
     76 HMA2       80.7415   56.3909   38.5775 dc         1 CLA      0.058300
     77 HMA1       81.8179   57.3726   37.4309 dc         1 CLA      0.058300
     78 HED3       77.9316   52.4707   36.9460 dc         1 CLA      0.079300
     79 HED2       76.4631   51.5526   36.2589 dc         1 CLA      0.079300
     80 HED1       77.5278   52.2569   35.1573 dc         1 CLA      0.079300
     81 HBC3       71.1930   55.0870   44.0197 dc         1 CLA      0.016300
     82 HBC2       72.3446   55.2624   42.9452 dc         1 CLA      0.016300
     83 HBC1       72.8035   55.5006   44.5571 dc         1 CLA      0.016300
     84 HBB2       79.7363   61.8079   46.1151 da         1 CLA      0.183000
     85 HBB1       80.5986   60.7656   44.9365 da         1 CLA      0.183000
     86 HBA2       79.8330   57.9820   33.4977 dc         1 CLA      0.029400
     87 HBA1       80.6414   58.1368   35.1191 dc         1 CLA      0.029400
     88 HAC2       71.4341   57.5533   44.7406 dc         1 CLA      0.029300
     89 HAC1       70.8335   57.3263   43.0915 dc         1 CLA      0.029300
     90 HAA2       77.8939   57.0944   34.8821 dc         1 CLA      0.028700
     91 HAA1       78.3089   58.7788   35.2499 dc         1 CLA      0.028700
     92 H203       84.3792   64.2614   47.1229 dc         1 CLA      0.065600
     93 H202       82.8057   64.4120   47.9314 dc         1 CLA      0.065600
     94 H201       84.1762   63.5359   48.5768 dc         1 CLA      0.065600
     95 H193       81.5985   60.9867   47.4474 dc         1 CLA      0.065600
     96 H192       82.8127   61.1638   48.6211 dc         1 CLA      0.065600
     97 H191       81.5807   62.3512   48.6220 dc         1 CLA      0.065600
     98 H172       84.8843   61.1182   47.1203 dc         1 CLA      0.027600
     99 H171       84.8038   62.2721   45.8478 dc         1 CLA      0.027600
    100 H162       83.1563   60.9390   44.5553 dc         1 CLA      0.002900
    101 H161       83.1690   59.7794   45.8109 dc         1 CLA      0.002900
    102 H152       85.6397   59.4369   45.6571 dc         1 CLA      0.029100
    103 H151       85.5432   60.1780   44.1240 dc         1 CLA      0.029100
    104 H143       85.1536   57.2509   45.8184 dc         1 CLA      0.063600
    105 H142       83.3280   57.2784   45.2826 dc         1 CLA      0.063600
    106 H141       84.6202   56.1889   44.6588 dc         1 CLA      0.063600
    107 H122       83.8131   59.2793   42.3573 dc         1 CLA      0.032500
    108 H121       82.7209   58.7769   43.4956 dc         1 CLA      0.032500
    109 H112       82.5858   57.6101   41.3416 dc         1 CLA      0.006600
    110 H111       83.3731   56.2991   42.3332 dc         1 CLA      0.006600
    111 H102       85.5506   57.0148   41.3844 dc         1 CLA      0.024100
    112 H101       84.7113   58.3524   40.5664 dc         1 CLA      0.024100
    113 HHD        71.9307   56.7084   41.1278 da         1 CLA      0.174300
    114 HHC        76.0049   60.4238   44.3178 da         1 CLA      0.136800
    115 HHB        80.3640   59.7337   39.7209 da         1 CLA      0.138300
    116 HBD        75.6723   56.4552   35.1931 dc         1 CLA      0.107700
    117 HAB        77.7485   62.0420   44.8059 da         1 CLA      0.155200
    118 H93        86.0810   57.4744   38.6505 dc         1 CLA      0.069500
    119 H92        86.2482   55.7209   38.8219 dc         1 CLA      0.069500
    120 H91        85.0486   56.4233   37.6011 dc         1 CLA      0.069500
    121 H8         83.5809   57.2351   38.9981 dc         1 CLA      0.029300
    122 H72        82.6804   55.3364   40.1629 dc         1 CLA      0.044400
    123 H71        84.3450   54.5695   40.1135 dc         1 CLA      0.044400
    124 H62        84.2833   54.1295   37.9321 dc         1 CLA      0.015600
    125 H61        82.9729   55.2863   37.5486 dc         1 CLA      0.015600
    126 H52        81.4467   54.1272   38.9723 dc         1 CLA      0.033200
    127 H51        82.6871   52.8571   39.3716 dc         1 CLA      0.033200
    128 H43        82.8361   50.9278   36.8694 dc         1 CLA      0.037000
    129 H42        81.8235   50.8853   38.3278 dc         1 CLA      0.037000
    130 H41        80.9632   50.9391   36.8013 dc         1 CLA      0.037000
    131 H3A        79.9905   58.9933   37.2291 dc         1 CLA      0.041100
    132 H2A        78.9911   56.2629   36.8791 dc         1 CLA      0.083100
    133 H2         79.8008   53.4719   36.8979 da         1 CLA      0.180900
    134 H18        82.3991   62.8205   46.1836 dc         1 CLA     -0.003900
    135 H13        85.5775   57.9751   43.5174 dc         1 CLA      0.019700
    136 H12        80.8978   53.5324   34.4881 dc         1 CLA      0.120400
    137 H11        82.3408   54.1796   35.3142 dc         1 CLA      0.120400
    138 C1         68.5021   61.4215   50.2280 Z1         2 LUT      0.509236
    139 C2         67.0929   61.1356   51.0163 Z2         2 LUT     -0.434695
    140 C3         66.2443   62.3536   51.3722 Z3         2 LUT      0.437453
    141 O3         66.5382   62.6703   52.7409 S1         2 LUT     -0.547129
    142 C4         66.4904   63.5160   50.4479 Z4         2 LUT     -0.468603
    143 C5         67.1185   63.2127   49.0876 Z5         2 LUT      0.279246
    144 C6         68.1985   62.3598   49.0144 Z6         2 LUT     -0.305473
    145 C7         68.4963   61.7918   47.6942 Z7         2 LUT      0.069402
    146 C8         69.6556   61.9774   47.0322 Z8         2 LUT     -0.191631
    147 C9         70.0709   61.5870   45.7033 Z9         2 LUT      0.196698
    148 C10        71.2962   62.1153   45.2131 Y1         2 LUT     -0.208611
    149 C11        72.0895   62.0779   44.0263 Y2         2 LUT      0.030784
    150 C12        73.2845   62.7259   43.8174 Y3         2 LUT     -0.220316
    151 C13        74.1291   62.7267   42.6338 Y4         2 LUT      0.215937
    152 C14        75.4297   63.2750   42.7641 Y5         2 LUT     -0.185793
    153 C15        76.3653   63.2991   41.7423 Y6         2 LUT     -0.057835
    154 C16        69.0730   60.0066   49.9769 Y7         2 LUT     -0.405615
    155 C17        69.3737   62.1389   51.2614 Y7         2 LUT     -0.405615
    156 C18        66.2194   63.7759   48.0147 Y9         2 LUT     -0.369639
    157 C19        69.1642   60.5671   45.0224 W1         2 LUT     -0.333362
    158 C20        73.4246   62.2493   41.3972 W2         2 LUT     -0.323439
    159 C21        87.6311   64.5644   35.7449 Z1         2 LUT      0.406104
    160 C22        88.5403   64.0812   34.5978 Z2         2 LUT     -0.404965
    161 C23        88.9658   65.0856   33.5330 Z3         2 LUT      0.391255
    162 O23        89.6085   64.4789   32.4241 S1         2 LUT     -0.528210
    163 C24        87.7417   65.9161   33.2349 W6         2 LUT     -0.258361
    164 C25        86.6685   66.0015   33.9020 Z5         2 LUT      0.133546
    165 C26        86.3186   65.1582   35.1495 W8         2 LUT     -0.147008
    166 C27        85.3215   65.8338   36.1155 Z7         2 LUT      0.023843
    167 C28        84.4157   65.2185   36.8820 Z8         2 LUT     -0.216987
    168 C29        83.6537   65.7994   37.9227 Z9         2 LUT      0.206524
    169 C30        82.6146   65.0574   38.4512 Y1         2 LUT     -0.215556
    170 C31        81.7160   65.3739   39.5793 Y2         2 LUT      0.025142
    171 C32        80.6557   64.6784   39.9260 Y3         2 LUT     -0.212209
    172 C33        79.7758   64.9397   40.9925 Y4         2 LUT      0.240937
    173 C34        78.6404   64.1341   41.0068 Y5         2 LUT     -0.218862
    174 C35        77.4969   64.0933   41.8886 Y6         2 LUT     -0.023547
    175 C36        88.3785   65.5545   36.6631 Y7         2 LUT     -0.393485
    176 C37        87.3263   63.3017   36.5496 Y7         2 LUT     -0.393485
    177 C38        85.6185   66.8950   33.2436 Y9         2 LUT     -0.387526
    178 C39        83.8790   67.1125   38.6640 W1         2 LUT     -0.322618
    179 C40        79.9556   66.1504   41.8732 W2         2 LUT     -0.358472
    180 H403       79.3692   66.0437   42.7906 R7         2 LUT      0.097720
    181 H402       80.9972   66.2089   42.1597 R7         2 LUT      0.097720
    182 H401       79.6384   67.1573   41.3902 R7         2 LUT      0.097720
    183 H393       82.9752   67.6276   38.6676 R4         2 LUT      0.082505
    184 H392       84.1771   66.9166   39.6505 R4         2 LUT      0.082505
    185 H391       84.6848   67.7451   38.2128 R4         2 LUT      0.082505
    186 H383       85.9335   67.9703   33.0840 R1         2 LUT      0.104030
    187 H382       85.2980   66.4236   32.3142 R1         2 LUT      0.104030
    188 H381       84.6704   66.9459   33.7672 R1         2 LUT      0.104030
    189 H373       88.1822   62.7294   36.9255 T4         2 LUT      0.089537
    190 H372       86.7806   63.5466   37.4365 T4         2 LUT      0.089537
    191 H371       86.7228   62.5482   36.0114 T4         2 LUT      0.089537
    192 H363       89.3601   65.1956   37.0481 T4         2 LUT      0.089537
    193 H362       88.6778   66.4727   36.1252 T4         2 LUT      0.089537
    194 H361       87.6392   65.8619   37.4768 T4         2 LUT      0.089537
    195 H222       89.4241   63.6030   35.0234 U2         2 LUT      0.127376
    196 H221       88.0365   63.1993   34.0979 U2         2 LUT      0.127376
    197 H203       72.4422   62.7854   41.2768 R7         2 LUT      0.087068
    198 H202       73.9951   62.3522   40.4861 R7         2 LUT      0.087068
    199 H201       73.1813   61.1737   41.4895 R7         2 LUT      0.087068
    200 H193       68.1519   61.0135   44.9822 R4         2 LUT      0.089716
    201 H192       69.5084   60.3600   44.0038 R4         2 LUT      0.089716
    202 H191       69.0722   59.5615   45.5206 R4         2 LUT      0.089716
    203 H183       66.7106   64.6548   47.6878 R1         2 LUT      0.094572
    204 H182       66.1104   63.0727   47.1915 R1         2 LUT      0.094572
    205 H181       65.2548   64.0652   48.3878 R1         2 LUT      0.094572
    206 H173       69.5852   61.5628   52.2315 T4         2 LUT      0.093752
    207 H172       70.3752   62.4861   50.8692 T4         2 LUT      0.093752
    208 H171       68.8931   63.0664   51.6145 T4         2 LUT      0.093752
    209 H163       69.0057   59.3511   50.8838 T4         2 LUT      0.093752
    210 H162       68.5902   59.4677   49.1143 T4         2 LUT      0.093752
    211 H161       70.1797   60.0558   49.8276 T4         2 LUT      0.093752
    212 HO3        65.9403   62.1655   53.3537 Q1         2 LUT      0.300121
    213 H8         70.3988   62.6040   47.5640 U7         2 LUT      0.080784
    214 H7         67.7427   61.2427   47.1962 U6         2 LUT      0.042190
    215 H42        65.5167   64.0589   50.4134 U5         2 LUT      0.145166
    216 H41        67.1280   64.2465   50.9805 U5         2 LUT      0.145166
    217 H35        77.5167   64.8246   42.6642 T3         2 LUT      0.077919
    218 H34        78.5943   63.5066   40.0743 T2         2 LUT      0.073626
    219 H32        80.4684   63.8615   39.3124 T1         2 LUT      0.092510
    220 H31        81.8857   66.2117   40.2722 U9         2 LUT      0.070048
    221 H30        82.3939   64.2060   37.8702 U8         2 LUT      0.085442
    222 H3         65.1708   62.1919   51.2721 U3         2 LUT     -0.031596
    223 H28        84.1960   64.2256   36.5301 U7         2 LUT      0.084728
    224 H27        85.6128   66.8315   36.2987 U6         2 LUT      0.087291
    225 H26        85.7290   64.3259   34.7843 Q6         2 LUT      0.075325
    226 H24        87.8007   66.6549   32.3592 Q5         2 LUT      0.094482
    227 H23        89.7199   65.6408   34.0766 U3         2 LUT     -0.024869
    228 H22        66.4238   60.5512   50.3871 U2         2 LUT      0.127376
    229 H21        67.3079   60.5584   51.9097 U2         2 LUT      0.127376
    230 H15        76.3893   62.6429   40.9868 T3         2 LUT      0.093200
    231 H14        75.6813   63.7381   43.8008 T2         2 LUT      0.068865
    232 H12        73.6702   63.1876   44.7190 T1         2 LUT      0.095507
    233 H11        71.6570   61.6278   43.1384 U9         2 LUT      0.068930
    234 H10        71.6935   62.8220   45.8870 U8         2 LUT      0.083911
    235 H1         89.0230   63.8831   31.9038 Q1         2 LUT      0.297311
@<TRIPOS>BOND
    1     6     1 1
    2     7     2 1
    3     8     3 1
    4     9     4 1
    5    11     4 1
    6    12     6 1
    7    13     9 1
    8    16     9 1
    9    25     5 1
   10    25    16 1
   11    26    10 1
   12    26    17 1
   13    27    18 1
   14    28    14 1
   15    28    19 1
   16    29    12 1
   17    30    13 1
   18    31    24 1
   19    32     1 1
   20    32    25 1
   21    33    21 1
   22    33    26 1
   23    34    22 1
   24    34    27 1
   25    35    23 1
   26    35    28 1
   27    36    12 1
   28    36    24 1
   29    37    13 1
   30    37    15 1
   31    38    31 1
   32    39    20 1
   33    39    32 1
   34    40     2 1
   35    40    33 1
   36    41     3 1
   37    41    34 1
   38    42     4 1
   39    42    35 1
   40    43    38 1
   41    44     5 1
   42    44    17 1
   43    44    39 1
   44    45    10 1
   45    45    18 1
   46    45    40 1
   47    46    19 1
   48    46    41 1
   49    47    14 1
   50    47    16 1
   51    47    42 1
   52    48    38 1
   53    49    48 1
   54    50    49 1
   55    51    50 1
   56    52    51 1
   57    53    51 1
   58    54    53 1
   59    55    54 1
   60    56    55 1
   61    57    56 1
   62    58    56 1
   63    59    58 1
   64    60    59 1
   65    61    60 1
   66    62    61 1
   67    63    61 1
   68    64    27 1
   69    64    46 1
   70    65     5 1
   71    65    10 1
   72    65    64 1
   73    65    14 1
   74    66    23 1
   75    67    23 1
   76    68    23 1
   77    69    22 1
   78    70    22 1
   79    71    22 1
   80    72    21 1
   81    73    21 1
   82    74    21 1
   83    75    20 1
   84    76    20 1
   85    77    20 1
   86    78    15 1
   87    79    15 1
   88    80    15 1
   89    81     8 1
   90    82     8 1
   91    83     8 1
   92    84     7 1
   93    85     7 1
   94    86     6 1
   95    87     6 1
   96    88     3 1
   97    89     3 1
   98    90     1 1
   99    91     1 1
  100    92    63 1
  101    93    63 1
  102    94    63 1
  103    95    62 1
  104    96    62 1
  105    97    62 1
  106    98    60 1
  107    99    60 1
  108   100    59 1
  109   101    59 1
  110   102    58 1
  111   103    58 1
  112   104    57 1
  113   105    57 1
  114   106    57 1
  115   107    55 1
  116   108    55 1
  117   109    54 1
  118   110    54 1
  119   111    53 1
  120   112    53 1
  121   113    19 1
  122   114    18 1
  123   115    17 1
  124   116     9 1
  125   117     2 1
  126   118    52 1
  127   119    52 1
  128   120    52 1
  129   121    51 1
  130   122    50 1
  131   123    50 1
  132   124    49 1
  133   125    49 1
  134   126    48 1
  135   127    48 1
  136   128    43 1
  137   129    43 1
  138   130    43 1
  139   131    39 1
  140   132    32 1
  141   133    31 1
  142   134    61 1
  143   135    56 1
  144   136    24 1
  145   137    24 1
  146   139   138 1
  147   140   139 1
  148   141   140 1
  149   142   140 1
  150   143   142 1
  151   144   138 1
  152   144   143 1
  153   145   144 1
  154   146   145 1
  155   147   146 1
  156   148   147 1
  157   149   148 1
  158   150   149 1
  159   151   150 1
  160   152   151 1
  161   153   152 1
  162   154   138 1
  163   155   138 1
  164   156   143 1
  165   157   147 1
  166   158   151 1
  167   160   159 1
  168   161   160 1
  169   162   161 1
  170   163   161 1
  171   164   163 1
  172   165   159 1
  173   165   164 1
  174   166   165 1
  175   167   166 1
  176   168   167 1
  177   169   168 1
  178   170   169 1
  179   171   170 1
  180   172   171 1
  181   173   172 1
  182   174   153 1
  183   174   173 1
  184   175   159 1
  185   176   159 1
  186   177   164 1
  187   178   168 1
  188   179   172 1
  189   180   179 1
  190   181   179 1
  191   182   179 1
  192   183   178 1
  193   184   178 1
  194   185   178 1
  195   186   177 1
  196   187   177 1
  197   188   177 1
  198   189   176 1
  199   190   176 1
  200   191   176 1
  201   192   175 1
  202   193   175 1
  203   194   175 1
  204   195   160 1
  205   196   160 1
  206   197   158 1
  207   198   158 1
  208   199   158 1
  209   200   157 1
  210   201   157 1
  211   202   157 1
  212   203   156 1
  213   204   156 1
  214   205   156 1
  215   206   155 1
  216   207   155 1
  217   208   155 1
  218   209   154 1
  219   210   154 1
  220   211   154 1
  221   212   141 1
  222   213   146 1
  223   214   145 1
  224   215   142 1
  225   216   142 1
  226   217   174 1
  227   218   173 1
  228   219   171 1
  229   220   170 1
  230   221   169 1
  231   222   140 1
  232   223   167 1
  233   224   166 1
  234   225   165 1
  235   226   163 1
  236   227   161 1
  237   228   139 1
  238   229   139 1
  239   230   153 1
  240   231   152 1
  241   232   150 1
  242   233   149 1
  243   234   148 1
  244   235   162 1
  245   65    153 1
  246   65    174 1
@<TRIPOS>SUBSTRUCTURE
      1 CLA               1 ****               0 ****  **** 
      2 LUT             138 ****               0 ****  **** 
