@<TRIPOS>MOLECULE
Cpptraj generated mol2 file.
  235   246     2     0     0
SMALL
USER_CHARGES


@<TRIPOS>ATOM
      1 CAA        80.0174   58.2747   34.5596 a2         1 CLA     -0.055900
      2 CAB        80.1522   62.8314   43.1453 c8         1 CLA     -0.148500
      3 CAC        73.0411   58.9043   43.0898 a2         1 CLA     -0.012600
      4 CAD        75.6058   55.8436   36.0660 ck         1 CLA      0.398800
      5 NA         78.9800   58.9008   37.9176 ns         1 CLA     -0.225500
      6 CBA        81.3553   58.0794   33.8331 a2         1 CLA     -0.135000
      7 CBB        81.3936   63.1502   43.6527 c0         1 CLA     -0.395200
      8 CBC        73.0658   57.4319   43.5173 a3         1 CLA     -0.037700
      9 CBD        77.2064   56.1044   35.8674 a1         1 CLA     -0.053900
     10 NB         78.8058   60.6850   40.3227 nm         1 CLA     -0.295700
     11 OBD        74.8790   55.0569   35.4311 o2         1 CLA     -0.494600
     12 CGA        81.6883   56.6661   33.4484 c4         1 CLA      0.827000
     13 CGD        78.1183   54.9748   36.2112 c4         1 CLA      0.655300
     14 ND         76.0771   58.2345   38.5947 nm         1 CLA     -0.291600
     15 CED        78.1398   52.8063   37.2538 a3         1 CLA      0.005400
     16 CHA        77.5483   57.4022   36.7322 cs         1 CLA     -0.123800
     17 CHB        80.7475   60.2339   38.8324 aa         1 CLA     -0.291900
     18 CHC        77.4921   61.2394   42.3108 aa         1 CLA     -0.090400
     19 CHD        74.2661   58.2105   40.1922 aa         1 CLA     -0.052000
     20 CMA        82.1768   57.8399   37.4506 a3         1 CLA     -0.230700
     21 CMB        82.1745   62.2885   40.4313 a3         1 CLA     -0.180800
     22 CMC        75.3010   61.0637   44.3718 a3         1 CLA     -0.134000
     23 CMD        72.8758   56.2334   38.2010 a3         1 CLA     -0.141100
     24 C1         82.4037   54.5909   34.5731 a2         1 CLA      0.023000
     25 C1A        78.7446   58.0795   36.8493 ac         1 CLA     -0.015100
     26 C1B        80.0925   60.8767   39.8832 cr         1 CLA      0.054700
     27 C1C        76.3757   60.3623   42.0793 cn         1 CLA     -0.005600
     28 C1D        74.7565   57.8808   38.9571 ap         1 CLA     -0.047300
     29 O1A        81.4222   56.1265   32.3578 o2         1 CLA     -0.610800
     30 O1D        79.2110   54.8379   35.8046 o2         1 CLA     -0.558200
     31 C2         83.3116   54.4199   35.8212 c8         1 CLA     -0.325100
     32 C2A        80.0457   57.8473   36.0472 a1         1 CLA      0.098600
     33 C2B        80.7743   61.8399   40.7811 cb         1 CLA      0.088500
     34 C2C        75.2718   60.3174   42.9988 cb         1 CLA      0.053700
     35 C2D        74.1766   56.9722   38.0254 cb         1 CLA      0.058900
     36 O2A        82.3678   56.0895   34.4694 o1         1 CLA     -0.437200
     37 O2D        77.5727   54.1287   37.1129 o1         1 CLA     -0.357600
     38 C3         84.6605   54.3464   35.8345 c5         1 CLA      0.031200
     39 C3A        80.9915   58.6720   36.8784 a1         1 CLA      0.166800
     40 C3B        79.8718   62.0676   41.9025 cb         1 CLA      0.035000
     41 C3C        74.3536   59.4179   42.4566 cb         1 CLA     -0.089900
     42 C3D        75.2265   56.6741   37.1707 cb         1 CLA     -0.035900
     43 C4         85.3891   53.1015   35.4005 a3         1 CLA     -0.053300
     44 C4A        80.2141   59.3015   37.9425 ac         1 CLA      0.001800
     45 C4B        78.6612   61.3366   41.5305 cn         1 CLA     -0.020900
     46 C4C        74.8690   59.0990   41.1416 cr         1 CLA     -0.044400
     47 C4D        76.3727   57.5046   37.5633 c6         1 CLA     -0.046000
     48 C5         85.4660   55.5408   36.1239 a2         1 CLA     -0.070400
     49 C6         86.2324   55.5874   37.4934 a2         1 CLA      0.043900
     50 C7         87.1157   56.8430   37.4888 a2         1 CLA     -0.150000
     51 C8         88.0662   56.9789   38.7234 a1         1 CLA      0.064200
     52 C9         88.9676   55.7777   39.0361 a3         1 CLA     -0.259300
     53 C10        87.2426   57.4472   39.9473 a2         1 CLA     -0.071900
     54 C11        88.1666   57.9858   41.0813 a2         1 CLA      0.014500
     55 C12        87.4713   58.5539   42.2924 a2         1 CLA     -0.112100
     56 C13        88.3791   59.2670   43.3523 a1         1 CLA      0.089200
     57 C14        89.1569   58.1448   44.0973 a3         1 CLA     -0.239100
     58 C15        87.4505   60.2144   44.2144 a2         1 CLA     -0.102200
     59 C16        87.9295   60.6610   45.5784 a2         1 CLA      0.023900
     60 C17        86.8378   61.5824   46.1809 a2         1 CLA     -0.105700
     61 C18        85.6911   60.7792   46.9421 a1         1 CLA      0.206800
     62 C19        86.1000   60.4055   48.3928 a3         1 CLA     -0.280100
     63 C20        84.4801   61.7260   46.8835 a3         1 CLA     -0.280100
     64 NC         76.0706   59.7242   40.9570 nx         1 CLA     -0.309200
     65 MG         77.4271   59.5200   39.3607 mg         1 CLA      0.895000
     66 HMD3       72.0943   56.6275   38.9064 dc         1 CLA      0.064300
     67 HMD2       72.4336   56.0948   37.2291 dc         1 CLA      0.064300
     68 HMD1       73.1954   55.2210   38.4020 dc         1 CLA      0.064300
     69 HMC3       76.1292   60.5969   44.8684 dc         1 CLA      0.052100
     70 HMC2       75.5199   62.0895   44.1500 dc         1 CLA      0.052100
     71 HMC1       74.3531   60.8538   44.8639 dc         1 CLA      0.052100
     72 HMB3       82.5470   63.0783   41.0995 dc         1 CLA      0.063600
     73 HMB2       82.8413   61.4577   40.5061 dc         1 CLA      0.063600
     74 HMB1       82.1511   62.6518   39.4255 dc         1 CLA      0.063600
     75 HMA3       81.7419   56.9133   37.8629 dc         1 CLA      0.058300
     76 HMA2       82.9151   57.5492   36.6962 dc         1 CLA      0.058300
     77 HMA1       82.8526   58.2793   38.2222 dc         1 CLA      0.058300
     78 HED3       78.2707   52.3113   36.2706 dc         1 CLA      0.079300
     79 HED2       79.1754   53.1072   37.5735 dc         1 CLA      0.079300
     80 HED1       77.7140   52.1628   37.9994 dc         1 CLA      0.079300
     81 HBC3       73.5138   56.8064   42.6751 dc         1 CLA      0.016300
     82 HBC2       73.7145   57.3977   44.4146 dc         1 CLA      0.016300
     83 HBC1       72.0884   57.1552   43.8077 dc         1 CLA      0.016300
     84 HBB2       81.4391   63.7408   44.5241 da         1 CLA      0.183000
     85 HBB1       82.3530   62.8672   43.2149 da         1 CLA      0.183000
     86 HBA2       81.2636   58.5128   32.7632 dc         1 CLA      0.029400
     87 HBA1       82.1486   58.6922   34.2966 dc         1 CLA      0.029400
     88 HAC2       72.9243   59.4769   43.9893 dc         1 CLA      0.029300
     89 HAC1       72.2733   59.2119   42.4021 dc         1 CLA      0.029300
     90 HAA2       79.2523   57.6452   34.1133 dc         1 CLA      0.028700
     91 HAA1       79.6480   59.2924   34.4203 dc         1 CLA      0.028700
     92 H203       84.6269   62.6613   47.4722 dc         1 CLA      0.065600
     93 H202       84.2325   62.0037   45.9053 dc         1 CLA      0.065600
     94 H201       83.7130   61.1139   47.2939 dc         1 CLA      0.065600
     95 H193       87.1477   60.1034   48.3067 dc         1 CLA      0.065600
     96 H192       86.0712   61.1568   49.1948 dc         1 CLA      0.065600
     97 H191       85.5015   59.5525   48.6293 dc         1 CLA      0.065600
     98 H172       87.2351   62.3057   46.9376 dc         1 CLA      0.027600
     99 H171       86.3501   62.2192   45.3968 dc         1 CLA      0.027600
    100 H162       87.9710   59.8835   46.3644 dc         1 CLA      0.002900
    101 H161       88.9016   61.1732   45.5527 dc         1 CLA      0.002900
    102 H152       87.1141   61.0001   43.6045 dc         1 CLA      0.029100
    103 H151       86.4743   59.7424   44.4787 dc         1 CLA      0.029100
    104 H143       89.9072   58.5980   44.5924 dc         1 CLA      0.063600
    105 H142       88.6023   57.5421   44.7864 dc         1 CLA      0.063600
    106 H141       89.6207   57.5065   43.3528 dc         1 CLA      0.063600
    107 H122       86.8686   59.3465   41.8686 dc         1 CLA      0.032500
    108 H121       86.6847   57.8722   42.6355 dc         1 CLA      0.032500
    109 H112       88.7115   57.0901   41.3935 dc         1 CLA      0.006600
    110 H111       88.9065   58.6050   40.5999 dc         1 CLA      0.006600
    111 H102       86.6744   58.2609   39.5176 dc         1 CLA      0.024100
    112 H101       86.5940   56.6762   40.3291 dc         1 CLA      0.024100
    113 HHD        73.2411   57.8239   40.4482 da         1 CLA      0.174300
    114 HHC        77.4979   61.6677   43.3381 da         1 CLA      0.136800
    115 HHB        81.7991   60.4809   38.6565 da         1 CLA      0.138300
    116 HBD        77.2298   56.3522   34.8186 dc         1 CLA      0.107700
    117 HAB        79.3503   63.2374   43.6824 da         1 CLA      0.155200
    118 H93        89.7312   56.1300   39.6478 dc         1 CLA      0.069500
    119 H92        88.4365   54.9782   39.5313 dc         1 CLA      0.069500
    120 H91        89.4232   55.4515   38.0638 dc         1 CLA      0.069500
    121 H8         88.7284   57.8106   38.5475 dc         1 CLA      0.029300
    122 H72        87.6585   56.8091   36.5225 dc         1 CLA      0.044400
    123 H71        86.4396   57.6698   37.5086 dc         1 CLA      0.044400
    124 H62        85.4843   55.6810   38.2649 dc         1 CLA      0.015600
    125 H61        86.8538   54.6460   37.5510 dc         1 CLA      0.015600
    126 H52        86.0521   55.7491   35.2026 dc         1 CLA      0.033200
    127 H51        84.7740   56.3030   36.2823 dc         1 CLA      0.033200
    128 H43        84.7754   52.2134   35.6986 dc         1 CLA      0.037000
    129 H42        85.5060   53.1048   34.3201 dc         1 CLA      0.037000
    130 H41        86.3307   52.8697   35.9332 dc         1 CLA      0.037000
    131 H3A        81.3792   59.5250   36.3036 dc         1 CLA      0.041100
    132 H2A        80.2968   56.8316   36.2313 dc         1 CLA      0.083100
    133 H2         82.8036   54.0332   36.6959 da         1 CLA      0.180900
    134 H18        85.4895   59.8624   46.4339 dc         1 CLA     -0.003900
    135 H13        89.1295   59.8546   42.7459 dc         1 CLA      0.019700
    136 H12        81.3903   54.1960   34.7371 dc         1 CLA      0.120400
    137 H11        82.7281   54.1172   33.6985 dc         1 CLA      0.120400
    138 C1         69.4204   62.0212   49.2846 Z1         2 LUT      0.509236
    139 C2         68.1063   61.8192   50.1079 Z2         2 LUT     -0.434695
    140 C3         67.3412   63.0985   50.5051 Z3         2 LUT      0.437453
    141 O3         67.8429   63.6467   51.7175 S1         2 LUT     -0.547129
    142 C4         67.3577   64.1114   49.3503 Z4         2 LUT     -0.468603
    143 C5         68.0914   63.8528   48.1323 Z5         2 LUT      0.279246
    144 C6         68.9924   62.8910   48.0832 Z6         2 LUT     -0.305473
    145 C7         69.6217   62.4393   46.7857 Z7         2 LUT      0.069402
    146 C8         70.6183   63.0903   46.1562 Z8         2 LUT     -0.191631
    147 C9         71.1764   62.8976   44.8102 Z9         2 LUT      0.196698
    148 C10        72.2212   63.6650   44.4341 Y1         2 LUT     -0.208611
    149 C11        73.1407   63.5607   43.3219 Y2         2 LUT      0.030784
    150 C12        74.3141   64.1942   43.1237 Y3         2 LUT     -0.220316
    151 C13        75.2499   64.0690   42.0240 Y4         2 LUT      0.215937
    152 C14        76.4756   64.6644   42.1752 Y5         2 LUT     -0.185793
    153 C15        77.6253   64.8777   41.2251 Y6         2 LUT     -0.057835
    154 C16        70.0753   60.6556   49.0594 Y7         2 LUT     -0.405615
    155 C17        70.4372   62.8395   50.1392 Y7         2 LUT     -0.405615
    156 C18        67.6141   64.7997   46.9469 Y9         2 LUT     -0.369639
    157 C19        70.5819   61.8113   43.9492 W1         2 LUT     -0.333362
    158 C20        74.8402   63.2658   40.8469 W2         2 LUT     -0.323439
    159 C21        88.8081   65.5732   34.9831 Z1         2 LUT      0.406104
    160 C22        89.4653   64.8413   33.7593 Z2         2 LUT     -0.404965
    161 C23        89.4969   65.7142   32.5230 Z3         2 LUT      0.391255
    162 O23        90.1153   64.9006   31.5026 S1         2 LUT     -0.528210
    163 C24        88.2234   66.4271   32.1773 W6         2 LUT     -0.258361
    164 C25        87.2143   66.6486   33.0842 Z5         2 LUT      0.133546
    165 C26        87.3051   66.0181   34.5254 W8         2 LUT     -0.147008
    166 C27        86.6316   66.8678   35.5550 Z7         2 LUT      0.023843
    167 C28        85.5646   66.3647   36.1854 Z8         2 LUT     -0.216987
    168 C29        84.8553   66.9997   37.2550 Z9         2 LUT      0.206524
    169 C30        83.8227   66.3402   37.8531 Y1         2 LUT     -0.215556
    170 C31        83.0619   66.7919   39.0025 Y2         2 LUT      0.025142
    171 C32        81.9125   66.1218   39.3263 Y3         2 LUT     -0.212209
    172 C33        80.9574   66.3453   40.4370 Y4         2 LUT      0.240937
    173 C34        79.7873   65.6447   40.4185 Y5         2 LUT     -0.218862
    174 C35        78.7939   65.5443   41.3991 Y6         2 LUT     -0.023547
    175 C36        89.7020   66.7867   35.4287 Y7         2 LUT     -0.393485
    176 C37        89.0527   64.5854   36.1625 Y7         2 LUT     -0.393485
    177 C38        85.9219   67.2546   32.6730 Y9         2 LUT     -0.387526
    178 C39        85.2436   68.4127   37.7430 W1         2 LUT     -0.322618
    179 C40        81.4146   67.2934   41.5413 W2         2 LUT     -0.358472
    180 H403       81.2848   68.3607   41.1735 R7         2 LUT      0.097720
    181 H402       80.9070   67.2528   42.4891 R7         2 LUT      0.097720
    182 H401       82.4391   67.0563   41.7273 R7         2 LUT      0.097720
    183 H393       84.4213   68.8764   38.2606 R4         2 LUT      0.082505
    184 H392       86.0420   68.3715   38.4117 R4         2 LUT      0.082505
    185 H391       85.4137   69.0858   36.9703 R4         2 LUT      0.082505
    186 H383       85.7927   67.2216   31.6078 R1         2 LUT      0.104030
    187 H382       85.0178   66.6861   32.8923 R1         2 LUT      0.104030
    188 H381       85.5928   68.2574   32.9878 R1         2 LUT      0.104030
    189 H373       88.6546   65.1032   37.0299 T4         2 LUT      0.089537
    190 H372       88.5373   63.6517   35.9452 T4         2 LUT      0.089537
    191 H371       90.1502   64.5051   36.2672 T4         2 LUT      0.089537
    192 H363       89.4722   67.3788   36.3274 T4         2 LUT      0.089537
    193 H362       90.7703   66.6187   35.6065 T4         2 LUT      0.089537
    194 H361       89.6472   67.5122   34.6064 T4         2 LUT      0.089537
    195 H222       90.4808   64.5865   34.0741 U2         2 LUT      0.127376
    196 H221       88.9990   63.8780   33.6715 U2         2 LUT      0.127376
    197 H203       74.8502   62.1730   41.1093 R7         2 LUT      0.087068
    198 H202       73.8254   63.4348   40.4280 R7         2 LUT      0.087068
    199 H201       75.5540   63.4618   40.0700 R7         2 LUT      0.087068
    200 H193       71.0069   61.8789   42.9171 R4         2 LUT      0.089716
    201 H192       70.9038   60.8179   44.3403 R4         2 LUT      0.089716
    202 H191       69.5123   61.9501   43.9095 R4         2 LUT      0.089716
    203 H183       67.3967   64.3408   45.9436 R1         2 LUT      0.094572
    204 H182       66.7206   65.5014   47.2324 R1         2 LUT      0.094572
    205 H181       68.3839   65.5499   46.7962 R1         2 LUT      0.094572
    206 H173       71.5056   62.7409   49.8398 T4         2 LUT      0.093752
    207 H172       70.2141   63.8993   50.1024 T4         2 LUT      0.093752
    208 H171       70.3935   62.4547   51.1750 T4         2 LUT      0.093752
    209 H163       70.8864   60.6769   48.2747 T4         2 LUT      0.093752
    210 H162       70.3728   60.1204   49.9486 T4         2 LUT      0.093752
    211 H161       69.3655   59.9193   48.6295 T4         2 LUT      0.093752
    212 HO3        67.8355   63.0380   52.4526 Q1         2 LUT      0.300121
    213 H8         71.1426   63.8706   46.6982 U7         2 LUT      0.080784
    214 H7         69.1488   61.6199   46.3854 U6         2 LUT      0.042190
    215 H42        66.3651   64.4168   49.0407 U5         2 LUT      0.145166
    216 H41        67.7606   65.0941   49.8039 U5         2 LUT      0.145166
    217 H35        78.9118   66.1424   42.3757 T3         2 LUT      0.077919
    218 H34        79.7235   64.8999   39.5833 T2         2 LUT      0.073626
    219 H32        81.6788   65.2679   38.8152 T1         2 LUT      0.092510
    220 H31        83.5248   67.5978   39.6227 U9         2 LUT      0.070048
    221 H30        83.5211   65.3171   37.6074 U8         2 LUT      0.085442
    222 H3         66.3251   62.7887   50.6127 U3         2 LUT     -0.031596
    223 H28        85.2940   65.4189   35.8034 U7         2 LUT      0.084728
    224 H27        87.0856   67.7510   35.9676 U6         2 LUT      0.087291
    225 H26        86.7794   65.0846   34.2704 Q6         2 LUT      0.075325
    226 H24        88.1478   66.8100   31.1784 Q5         2 LUT      0.094482
    227 H23        90.1022   66.6145   32.6939 U3         2 LUT     -0.024869
    228 H22        67.4204   61.3799   49.3222 U2         2 LUT      0.127376
    229 H21        68.3365   61.0303   50.8474 U2         2 LUT      0.127376
    230 H15        77.4721   64.4045   40.3130 T3         2 LUT      0.093200
    231 H14        76.7161   65.2699   43.0217 T2         2 LUT      0.068865
    232 H12        74.5892   64.9398   43.9065 T1         2 LUT      0.095507
    233 H11        72.7929   62.9497   42.4648 U9         2 LUT      0.068930
    234 H10        72.3999   64.3861   45.1739 U8         2 LUT      0.083911
    235 H1         89.4879   64.4668   30.8633 Q1         2 LUT      0.297311
@<TRIPOS>BOND
    1     6     1 1
    2     7     2 1
    3     8     3 1
    4     9     4 1
    5    11     4 1
    6    12     6 1
    7    13     9 1
    8    16     9 1
    9    25     5 1
   10    25    16 1
   11    26    10 1
   12    26    17 1
   13    27    18 1
   14    28    14 1
   15    28    19 1
   16    29    12 1
   17    30    13 1
   18    31    24 1
   19    32     1 1
   20    32    25 1
   21    33    21 1
   22    33    26 1
   23    34    22 1
   24    34    27 1
   25    35    23 1
   26    35    28 1
   27    36    12 1
   28    36    24 1
   29    37    13 1
   30    37    15 1
   31    38    31 1
   32    39    20 1
   33    39    32 1
   34    40     2 1
   35    40    33 1
   36    41     3 1
   37    41    34 1
   38    42     4 1
   39    42    35 1
   40    43    38 1
   41    44     5 1
   42    44    17 1
   43    44    39 1
   44    45    10 1
   45    45    18 1
   46    45    40 1
   47    46    19 1
   48    46    41 1
   49    47    14 1
   50    47    16 1
   51    47    42 1
   52    48    38 1
   53    49    48 1
   54    50    49 1
   55    51    50 1
   56    52    51 1
   57    53    51 1
   58    54    53 1
   59    55    54 1
   60    56    55 1
   61    57    56 1
   62    58    56 1
   63    59    58 1
   64    60    59 1
   65    61    60 1
   66    62    61 1
   67    63    61 1
   68    64    27 1
   69    64    46 1
   70    65     5 1
   71    65    10 1
   72    65    64 1
   73    65    14 1
   74    66    23 1
   75    67    23 1
   76    68    23 1
   77    69    22 1
   78    70    22 1
   79    71    22 1
   80    72    21 1
   81    73    21 1
   82    74    21 1
   83    75    20 1
   84    76    20 1
   85    77    20 1
   86    78    15 1
   87    79    15 1
   88    80    15 1
   89    81     8 1
   90    82     8 1
   91    83     8 1
   92    84     7 1
   93    85     7 1
   94    86     6 1
   95    87     6 1
   96    88     3 1
   97    89     3 1
   98    90     1 1
   99    91     1 1
  100    92    63 1
  101    93    63 1
  102    94    63 1
  103    95    62 1
  104    96    62 1
  105    97    62 1
  106    98    60 1
  107    99    60 1
  108   100    59 1
  109   101    59 1
  110   102    58 1
  111   103    58 1
  112   104    57 1
  113   105    57 1
  114   106    57 1
  115   107    55 1
  116   108    55 1
  117   109    54 1
  118   110    54 1
  119   111    53 1
  120   112    53 1
  121   113    19 1
  122   114    18 1
  123   115    17 1
  124   116     9 1
  125   117     2 1
  126   118    52 1
  127   119    52 1
  128   120    52 1
  129   121    51 1
  130   122    50 1
  131   123    50 1
  132   124    49 1
  133   125    49 1
  134   126    48 1
  135   127    48 1
  136   128    43 1
  137   129    43 1
  138   130    43 1
  139   131    39 1
  140   132    32 1
  141   133    31 1
  142   134    61 1
  143   135    56 1
  144   136    24 1
  145   137    24 1
  146   139   138 1
  147   140   139 1
  148   141   140 1
  149   142   140 1
  150   143   142 1
  151   144   138 1
  152   144   143 1
  153   145   144 1
  154   146   145 1
  155   147   146 1
  156   148   147 1
  157   149   148 1
  158   150   149 1
  159   151   150 1
  160   152   151 1
  161   153   152 1
  162   154   138 1
  163   155   138 1
  164   156   143 1
  165   157   147 1
  166   158   151 1
  167   160   159 1
  168   161   160 1
  169   162   161 1
  170   163   161 1
  171   164   163 1
  172   165   159 1
  173   165   164 1
  174   166   165 1
  175   167   166 1
  176   168   167 1
  177   169   168 1
  178   170   169 1
  179   171   170 1
  180   172   171 1
  181   173   172 1
  182   174   153 1
  183   174   173 1
  184   175   159 1
  185   176   159 1
  186   177   164 1
  187   178   168 1
  188   179   172 1
  189   180   179 1
  190   181   179 1
  191   182   179 1
  192   183   178 1
  193   184   178 1
  194   185   178 1
  195   186   177 1
  196   187   177 1
  197   188   177 1
  198   189   176 1
  199   190   176 1
  200   191   176 1
  201   192   175 1
  202   193   175 1
  203   194   175 1
  204   195   160 1
  205   196   160 1
  206   197   158 1
  207   198   158 1
  208   199   158 1
  209   200   157 1
  210   201   157 1
  211   202   157 1
  212   203   156 1
  213   204   156 1
  214   205   156 1
  215   206   155 1
  216   207   155 1
  217   208   155 1
  218   209   154 1
  219   210   154 1
  220   211   154 1
  221   212   141 1
  222   213   146 1
  223   214   145 1
  224   215   142 1
  225   216   142 1
  226   217   174 1
  227   218   173 1
  228   219   171 1
  229   220   170 1
  230   221   169 1
  231   222   140 1
  232   223   167 1
  233   224   166 1
  234   225   165 1
  235   226   163 1
  236   227   161 1
  237   228   139 1
  238   229   139 1
  239   230   153 1
  240   231   152 1
  241   232   150 1
  242   233   149 1
  243   234   148 1
  244   235   162 1
  245   65    153 1
  246   65    174 1
@<TRIPOS>SUBSTRUCTURE
      1 CLA               1 ****               0 ****  **** 
      2 LUT             138 ****               0 ****  **** 
