@<TRIPOS>MOLECULE
Cpptraj generated mol2 file.
  235   246     2     0     0
SMALL
USER_CHARGES


@<TRIPOS>ATOM
      1 CAA        79.9823   58.8689   33.3301 a2         1 CLA     -0.055900
      2 CAB        80.2458   61.7721   42.8012 c8         1 CLA     -0.148500
      3 CAC        73.2197   58.0929   42.0953 a2         1 CLA     -0.012600
      4 CAD        75.5906   56.3359   34.5921 ck         1 CLA      0.398800
      5 NA         79.0121   59.0876   36.8530 ns         1 CLA     -0.225500
      6 CBA        81.1628   58.4882   32.3719 a2         1 CLA     -0.135000
      7 CBB        80.9434   62.8659   43.1262 c0         1 CLA     -0.395200
      8 CBC        72.9980   56.5778   42.1439 a3         1 CLA     -0.037700
      9 CBD        77.1044   56.8024   34.3682 a1         1 CLA     -0.053900
     10 NB         78.9729   60.3343   39.5944 nm         1 CLA     -0.295700
     11 OBD        74.9070   55.6195   33.8789 o2         1 CLA     -0.494600
     12 CGA        81.4946   56.9725   32.1184 c4         1 CLA      0.827000
     13 CGD        77.9565   55.6740   33.9280 c4         1 CLA      0.655300
     14 ND         76.2087   58.1703   37.5237 nm         1 CLA     -0.291600
     15 CED        78.6949   53.4390   34.4303 a3         1 CLA      0.005400
     16 CHA        77.5993   57.7195   35.5032 cs         1 CLA     -0.123800
     17 CHB        80.6989   60.4682   37.9417 aa         1 CLA     -0.291900
     18 CHC        77.7803   60.2993   41.7697 aa         1 CLA     -0.090400
     19 CHD        74.4613   57.8827   39.2129 aa         1 CLA     -0.052000
     20 CMA        82.4381   58.5959   36.0128 a3         1 CLA     -0.230700
     21 CMB        82.2278   62.1661   40.0351 a3         1 CLA     -0.180800
     22 CMC        75.5211   59.7608   43.7508 a3         1 CLA     -0.134000
     23 CMD        73.0136   56.2824   36.8438 a3         1 CLA     -0.141100
     24 C1         82.5770   55.0437   33.2020 a2         1 CLA      0.023000
     25 C1A        78.8152   58.4297   35.6873 ac         1 CLA     -0.015100
     26 C1B        80.1751   60.7959   39.2042 cr         1 CLA      0.054700
     27 C1C        76.5729   59.6265   41.4107 cn         1 CLA     -0.005600
     28 C1D        74.9426   57.6952   37.8758 ap         1 CLA     -0.047300
     29 O1A        80.9664   56.2836   31.2473 o2         1 CLA     -0.610800
     30 O1D        78.6631   55.6640   32.9505 o2         1 CLA     -0.558200
     31 C2         83.2361   54.7401   34.5491 c8         1 CLA     -0.325100
     32 C2A        80.1071   58.3984   34.8514 a1         1 CLA      0.098600
     33 C2B        80.9105   61.5294   40.2398 cb         1 CLA      0.088500
     34 C2C        75.5095   59.2844   42.3441 cb         1 CLA      0.053700
     35 C2D        74.3170   56.9760   36.8086 cb         1 CLA      0.058900
     36 O2A        82.2597   56.4231   33.1540 o1         1 CLA     -0.437200
     37 O2D        77.8941   54.6563   34.8442 o1         1 CLA     -0.357600
     38 C3         84.4669   54.1913   34.6888 c5         1 CLA      0.031200
     39 C3A        81.0840   59.3029   35.6261 a1         1 CLA      0.166800
     40 C3B        80.0714   61.3377   41.3638 cb         1 CLA      0.035000
     41 C3C        74.5381   58.6262   41.5613 cb         1 CLA     -0.089900
     42 C3D        75.3140   56.9908   35.8153 cb         1 CLA     -0.035900
     43 C4         84.6657   52.7164   34.5547 a3         1 CLA     -0.053300
     44 C4A        80.2241   59.6618   36.9152 ac         1 CLA      0.001800
     45 C4B        78.9060   60.6003   40.9604 cn         1 CLA     -0.020900
     46 C4C        75.1142   58.4482   40.3237 cr         1 CLA     -0.044400
     47 C4D        76.4793   57.5966   36.3528 c6         1 CLA     -0.046000
     48 C5         85.6661   55.0168   34.4503 a2         1 CLA     -0.070400
     49 C6         85.6943   56.3780   35.2606 a2         1 CLA      0.043900
     50 C7         85.9671   56.1487   36.7684 a2         1 CLA     -0.150000
     51 C8         86.3590   57.4016   37.5949 a1         1 CLA      0.064200
     52 C9         87.7942   57.8841   37.2107 a3         1 CLA     -0.259300
     53 C10        86.3032   56.9505   39.1001 a2         1 CLA     -0.071900
     54 C11        86.9260   57.8583   40.1939 a2         1 CLA      0.014500
     55 C12        86.9609   57.1744   41.5731 a2         1 CLA     -0.112100
     56 C13        87.4070   57.9904   42.8585 a1         1 CLA      0.089200
     57 C14        88.8774   58.3065   42.8614 a3         1 CLA     -0.239100
     58 C15        87.1028   57.2965   44.2369 a2         1 CLA     -0.102200
     59 C16        85.6092   57.0715   44.5646 a2         1 CLA      0.023900
     60 C17        84.8953   58.3397   44.8197 a2         1 CLA     -0.105700
     61 C18        83.4169   58.2688   45.2913 a1         1 CLA      0.206800
     62 C19        83.3226   57.9244   46.8723 a3         1 CLA     -0.280100
     63 C20        82.9059   59.7276   45.3432 a3         1 CLA     -0.280100
     64 NC         76.2679   59.1354   40.1655 nx         1 CLA     -0.309200
     65 MG         77.5319   59.2976   38.4947 mg         1 CLA      0.895000
     66 HMD3       72.2014   57.0041   36.8684 dc         1 CLA      0.064300
     67 HMD2       72.8703   55.6487   36.0129 dc         1 CLA      0.064300
     68 HMD1       72.9898   55.6319   37.7431 dc         1 CLA      0.064300
     69 HMC3       74.5752   59.5692   44.2717 dc         1 CLA      0.052100
     70 HMC2       76.3593   59.3710   44.2421 dc         1 CLA      0.052100
     71 HMC1       75.4528   60.8297   43.5934 dc         1 CLA      0.052100
     72 HMB3       82.8939   61.5127   39.5455 dc         1 CLA      0.063600
     73 HMB2       82.1063   62.9593   39.3402 dc         1 CLA      0.063600
     74 HMB1       82.7269   62.5382   40.9179 dc         1 CLA      0.063600
     75 HMA3       82.2737   57.7936   36.7870 dc         1 CLA      0.058300
     76 HMA2       82.8084   58.0782   35.1847 dc         1 CLA      0.058300
     77 HMA1       83.1478   59.3068   36.3922 dc         1 CLA      0.058300
     78 HED3       79.7513   53.6441   34.4562 dc         1 CLA      0.079300
     79 HED2       78.4440   52.6265   35.1525 dc         1 CLA      0.079300
     80 HED1       78.2953   53.0190   33.4712 dc         1 CLA      0.079300
     81 HBC3       73.3510   56.1348   41.2564 dc         1 CLA      0.016300
     82 HBC2       73.5202   56.1196   43.0527 dc         1 CLA      0.016300
     83 HBC1       71.9037   56.3907   42.2444 dc         1 CLA      0.016300
     84 HBB2       81.0829   63.1935   44.1480 da         1 CLA      0.183000
     85 HBB1       81.2862   63.6272   42.3985 da         1 CLA      0.183000
     86 HBA2       80.9598   58.9778   31.4141 dc         1 CLA      0.029400
     87 HBA1       81.9944   59.0425   32.8441 dc         1 CLA      0.029400
     88 HAC2       73.0239   58.3003   43.1550 dc         1 CLA      0.029300
     89 HAC1       72.3825   58.3920   41.4842 dc         1 CLA      0.029300
     90 HAA2       79.1597   58.2629   32.9216 dc         1 CLA      0.028700
     91 HAA1       79.7064   59.9388   33.2722 dc         1 CLA      0.028700
     92 H203       82.8066   60.1065   44.2416 dc         1 CLA      0.065600
     93 H202       81.8120   59.6079   45.6439 dc         1 CLA      0.065600
     94 H201       83.3622   60.3761   46.0207 dc         1 CLA      0.065600
     95 H193       83.8708   58.5962   47.5101 dc         1 CLA      0.065600
     96 H192       82.3051   57.8010   47.2271 dc         1 CLA      0.065600
     97 H191       83.7893   56.8930   46.9933 dc         1 CLA      0.065600
     98 H172       85.4810   58.8841   45.5671 dc         1 CLA      0.027600
     99 H171       84.9457   58.9980   43.9410 dc         1 CLA      0.027600
    100 H162       85.1222   56.5241   43.6821 dc         1 CLA      0.002900
    101 H161       85.4950   56.4199   45.4502 dc         1 CLA      0.002900
    102 H152       87.6282   56.3173   44.2328 dc         1 CLA      0.029100
    103 H151       87.4691   57.9068   45.0384 dc         1 CLA      0.029100
    104 H143       89.3852   57.3312   42.5352 dc         1 CLA      0.063600
    105 H142       89.0624   58.9952   42.0927 dc         1 CLA      0.063600
    106 H141       89.2755   58.7395   43.8025 dc         1 CLA      0.063600
    107 H122       86.0023   56.7646   41.7546 dc         1 CLA      0.032500
    108 H121       87.7043   56.4036   41.5624 dc         1 CLA      0.032500
    109 H112       87.9551   58.1984   40.0260 dc         1 CLA      0.006600
    110 H111       86.3077   58.7353   40.2425 dc         1 CLA      0.006600
    111 H102       85.3027   56.6443   39.3135 dc         1 CLA      0.024100
    112 H101       86.7936   55.9680   39.0808 dc         1 CLA      0.024100
    113 HHD        73.4905   57.3523   39.3751 da         1 CLA      0.174300
    114 HHC        77.8319   60.5845   42.7830 da         1 CLA      0.136800
    115 HHB        81.7620   60.8011   37.7665 da         1 CLA      0.138300
    116 HBD        76.9340   57.4270   33.5040 dc         1 CLA      0.107700
    117 HAB        79.9251   61.1182   43.6133 da         1 CLA      0.155200
    118 H93        88.2414   58.6625   37.7994 dc         1 CLA      0.069500
    119 H92        88.5496   57.0781   37.3505 dc         1 CLA      0.069500
    120 H91        87.7861   58.1715   36.1529 dc         1 CLA      0.069500
    121 H8         85.6145   58.1383   37.3861 dc         1 CLA      0.029300
    122 H72        85.0808   55.7620   37.2072 dc         1 CLA      0.044400
    123 H71        86.7391   55.3289   36.8513 dc         1 CLA      0.044400
    124 H62        86.4707   56.9856   34.8337 dc         1 CLA      0.015600
    125 H61        84.8321   56.9506   35.2702 dc         1 CLA      0.015600
    126 H52        86.6160   54.4327   34.6372 dc         1 CLA      0.033200
    127 H51        85.6854   55.2718   33.3965 dc         1 CLA      0.033200
    128 H43        83.7036   52.2104   34.5473 dc         1 CLA      0.037000
    129 H42        85.1852   52.4644   33.6399 dc         1 CLA      0.037000
    130 H41        85.3057   52.3535   35.4044 dc         1 CLA      0.037000
    131 H3A        81.2621   60.2693   35.1699 dc         1 CLA      0.041100
    132 H2A        80.4725   57.3036   34.9803 dc         1 CLA      0.083100
    133 H2         82.7509   54.9621   35.5051 da         1 CLA      0.180900
    134 H18        82.9207   57.6566   44.6135 dc         1 CLA     -0.003900
    135 H13        86.9542   58.9408   42.8590 dc         1 CLA      0.019700
    136 H12        81.6663   54.4700   33.2147 dc         1 CLA      0.120400
    137 H11        83.2121   54.8707   32.3332 dc         1 CLA      0.120400
    138 C1         69.0477   61.5150   49.2651 Z1         2 LUT      0.509236
    139 C2         67.5234   61.4683   49.7133 Z2         2 LUT     -0.434695
    140 C3         66.7562   62.7461   49.9281 Z3         2 LUT      0.437453
    141 O3         66.9453   63.1268   51.2755 S1         2 LUT     -0.547129
    142 C4         67.1988   63.8330   48.9672 Z4         2 LUT     -0.468603
    143 C5         68.0765   63.4127   47.8711 Z5         2 LUT      0.279246
    144 C6         69.0712   62.4018   47.9789 Z6         2 LUT     -0.305473
    145 C7         69.6879   61.8650   46.7840 Z7         2 LUT      0.069402
    146 C8         70.7120   62.4241   46.1010 Z8         2 LUT     -0.191631
    147 C9         71.1703   62.1235   44.7182 Z9         2 LUT      0.196698
    148 C10        72.2484   62.8229   44.2237 Y1         2 LUT     -0.208611
    149 C11        73.0391   62.7659   43.0405 Y2         2 LUT      0.030784
    150 C12        74.1788   63.4713   42.8578 Y3         2 LUT     -0.220316
    151 C13        74.9876   63.5726   41.6566 Y4         2 LUT      0.215937
    152 C14        76.2892   64.0985   41.7162 Y5         2 LUT     -0.185793
    153 C15        77.2620   64.2785   40.6879 Y6         2 LUT     -0.057835
    154 C16        69.5527   60.0940   49.0784 Y7         2 LUT     -0.405615
    155 C17        69.7309   62.2005   50.5012 Y7         2 LUT     -0.405615
    156 C18        67.8423   64.1383   46.6138 Y9         2 LUT     -0.369639
    157 C19        70.4649   61.1396   43.9077 W1         2 LUT     -0.333362
    158 C20        74.3970   63.0206   40.3568 W2         2 LUT     -0.323439
    159 C21        88.6969   66.0865   34.4617 Z1         2 LUT      0.406104
    160 C22        89.2250   65.5379   33.1158 Z2         2 LUT     -0.404965
    161 C23        89.1836   66.5114   31.9522 Z3         2 LUT      0.391255
    162 O23        89.4022   65.6564   30.7589 S1         2 LUT     -0.528210
    163 C24        87.7628   67.1487   31.8258 W6         2 LUT     -0.258361
    164 C25        86.8932   67.1004   32.8249 Z5         2 LUT      0.133546
    165 C26        87.1293   66.3831   34.1420 W8         2 LUT     -0.147008
    166 C27        86.4527   67.0730   35.2910 Z7         2 LUT      0.023843
    167 C28        85.3039   66.5933   35.8862 Z8         2 LUT     -0.216987
    168 C29        84.7326   67.0027   37.2432 Z9         2 LUT      0.206524
    169 C30        83.6683   66.2443   37.6606 Y1         2 LUT     -0.215556
    170 C31        82.9371   66.4033   38.8374 Y2         2 LUT      0.025142
    171 C32        81.7301   65.7903   39.0875 Y3         2 LUT     -0.212209
    172 C33        80.8146   65.7778   40.2256 Y4         2 LUT      0.240937
    173 C34        79.6470   65.1094   40.0353 Y5         2 LUT     -0.218862
    174 C35        78.5096   64.8469   40.9727 Y6         2 LUT     -0.023547
    175 C36        89.6561   67.1303   34.9253 Y7         2 LUT     -0.393485
    176 C37        88.6459   64.9886   35.4544 Y7         2 LUT     -0.393485
    177 C38        85.5062   67.5521   32.5659 Y9         2 LUT     -0.387526
    178 C39        85.4619   68.0825   37.9865 W1         2 LUT     -0.322618
    179 C40        81.0946   66.6360   41.4333 W2         2 LUT     -0.358472
    180 H403       81.6612   67.5325   41.2971 R7         2 LUT      0.097720
    181 H402       80.0965   66.9318   41.8861 R7         2 LUT      0.097720
    182 H401       81.7644   66.1764   42.1266 R7         2 LUT      0.097720
    183 H393       84.8123   68.7422   38.5626 R4         2 LUT      0.082505
    184 H392       86.1250   67.6201   38.6856 R4         2 LUT      0.082505
    185 H391       86.0303   68.7442   37.4291 R4         2 LUT      0.082505
    186 H383       85.4780   67.9099   31.6370 R1         2 LUT      0.104030
    187 H382       84.8307   66.6816   32.7370 R1         2 LUT      0.104030
    188 H381       85.2907   68.3560   33.2236 R1         2 LUT      0.104030
    189 H373       89.5740   64.4979   35.6481 T4         2 LUT      0.089537
    190 H372       88.1964   65.2495   36.3785 T4         2 LUT      0.089537
    191 H371       88.1527   64.0861   35.0646 T4         2 LUT      0.089537
    192 H363       89.6691   68.0002   34.2647 T4         2 LUT      0.089537
    193 H362       89.4617   67.4229   35.9135 T4         2 LUT      0.089537
    194 H361       90.6672   66.8034   34.7664 T4         2 LUT      0.089537
    195 H222       90.2616   65.2006   33.2703 U2         2 LUT      0.127376
    196 H221       88.7007   64.6236   32.8251 U2         2 LUT      0.127376
    197 H203       75.0561   63.2545   39.4871 R7         2 LUT      0.087068
    198 H202       74.4310   61.9232   40.3779 R7         2 LUT      0.087068
    199 H201       73.3828   63.5133   40.1396 R7         2 LUT      0.087068
    200 H193       69.9117   60.4362   44.5582 R4         2 LUT      0.089716
    201 H192       69.7949   61.5980   43.1957 R4         2 LUT      0.089716
    202 H191       71.0477   60.3964   43.3144 R4         2 LUT      0.089716
    203 H183       68.6945   64.1848   45.9637 R1         2 LUT      0.094572
    204 H182       67.0082   63.6833   46.0739 R1         2 LUT      0.094572
    205 H181       67.5917   65.2210   46.8402 R1         2 LUT      0.094572
    206 H173       69.5907   61.5374   51.3774 T4         2 LUT      0.093752
    207 H172       70.8289   62.2587   50.2926 T4         2 LUT      0.093752
    208 H171       69.4318   63.2194   50.6372 T4         2 LUT      0.093752
    209 H163       68.9510   59.6201   48.2826 T4         2 LUT      0.093752
    210 H162       70.5462   59.9433   48.6165 T4         2 LUT      0.093752
    211 H161       69.4827   59.4658   49.9929 T4         2 LUT      0.093752
    212 HO3        66.6758   62.4914   51.9593 Q1         2 LUT      0.300121
    213 H8         71.0835   63.3486   46.5171 U7         2 LUT      0.080784
    214 H7         69.2895   60.9397   46.4486 U6         2 LUT      0.042190
    215 H42        66.2111   64.0872   48.4955 U5         2 LUT      0.145166
    216 H41        67.6784   64.6726   49.5243 U5         2 LUT      0.145166
    217 H35        78.5587   65.2084   42.0256 T3         2 LUT      0.077919
    218 H34        79.4847   64.7031   38.9944 T2         2 LUT      0.073626
    219 H32        81.3626   65.1468   38.2590 T1         2 LUT      0.092510
    220 H31        83.4689   67.1419   39.5330 U9         2 LUT      0.070048
    221 H30        83.1628   65.5530   36.9568 U8         2 LUT      0.085442
    222 H3         65.7501   62.4023   49.7364 U3         2 LUT     -0.031596
    223 H28        84.7914   65.8662   35.2961 U7         2 LUT      0.084728
    224 H27        87.1083   67.7641   35.8755 U6         2 LUT      0.087291
    225 H26        86.7606   65.3983   33.9083 Q6         2 LUT      0.075325
    226 H24        87.6526   67.7028   30.8761 Q5         2 LUT      0.094482
    227 H23        89.9453   67.2768   31.9620 U3         2 LUT     -0.024869
    228 H22        67.0479   60.9985   48.8444 U2         2 LUT      0.127376
    229 H21        67.3049   60.7475   50.5297 U2         2 LUT      0.127376
    230 H15        77.1559   63.9855   39.6986 T3         2 LUT      0.093200
    231 H14        76.6217   64.4737   42.6617 T2         2 LUT      0.068865
    232 H12        74.6165   64.0050   43.7521 T1         2 LUT      0.095507
    233 H11        72.5780   62.1452   42.2649 U9         2 LUT      0.068930
    234 H10        72.7261   63.5809   44.8373 U8         2 LUT      0.083911
    235 H1         89.6390   66.1206   29.9613 Q1         2 LUT      0.297311
@<TRIPOS>BOND
    1     6     1 1
    2     7     2 1
    3     8     3 1
    4     9     4 1
    5    11     4 1
    6    12     6 1
    7    13     9 1
    8    16     9 1
    9    25     5 1
   10    25    16 1
   11    26    10 1
   12    26    17 1
   13    27    18 1
   14    28    14 1
   15    28    19 1
   16    29    12 1
   17    30    13 1
   18    31    24 1
   19    32     1 1
   20    32    25 1
   21    33    21 1
   22    33    26 1
   23    34    22 1
   24    34    27 1
   25    35    23 1
   26    35    28 1
   27    36    12 1
   28    36    24 1
   29    37    13 1
   30    37    15 1
   31    38    31 1
   32    39    20 1
   33    39    32 1
   34    40     2 1
   35    40    33 1
   36    41     3 1
   37    41    34 1
   38    42     4 1
   39    42    35 1
   40    43    38 1
   41    44     5 1
   42    44    17 1
   43    44    39 1
   44    45    10 1
   45    45    18 1
   46    45    40 1
   47    46    19 1
   48    46    41 1
   49    47    14 1
   50    47    16 1
   51    47    42 1
   52    48    38 1
   53    49    48 1
   54    50    49 1
   55    51    50 1
   56    52    51 1
   57    53    51 1
   58    54    53 1
   59    55    54 1
   60    56    55 1
   61    57    56 1
   62    58    56 1
   63    59    58 1
   64    60    59 1
   65    61    60 1
   66    62    61 1
   67    63    61 1
   68    64    27 1
   69    64    46 1
   70    65     5 1
   71    65    10 1
   72    65    64 1
   73    65    14 1
   74    66    23 1
   75    67    23 1
   76    68    23 1
   77    69    22 1
   78    70    22 1
   79    71    22 1
   80    72    21 1
   81    73    21 1
   82    74    21 1
   83    75    20 1
   84    76    20 1
   85    77    20 1
   86    78    15 1
   87    79    15 1
   88    80    15 1
   89    81     8 1
   90    82     8 1
   91    83     8 1
   92    84     7 1
   93    85     7 1
   94    86     6 1
   95    87     6 1
   96    88     3 1
   97    89     3 1
   98    90     1 1
   99    91     1 1
  100    92    63 1
  101    93    63 1
  102    94    63 1
  103    95    62 1
  104    96    62 1
  105    97    62 1
  106    98    60 1
  107    99    60 1
  108   100    59 1
  109   101    59 1
  110   102    58 1
  111   103    58 1
  112   104    57 1
  113   105    57 1
  114   106    57 1
  115   107    55 1
  116   108    55 1
  117   109    54 1
  118   110    54 1
  119   111    53 1
  120   112    53 1
  121   113    19 1
  122   114    18 1
  123   115    17 1
  124   116     9 1
  125   117     2 1
  126   118    52 1
  127   119    52 1
  128   120    52 1
  129   121    51 1
  130   122    50 1
  131   123    50 1
  132   124    49 1
  133   125    49 1
  134   126    48 1
  135   127    48 1
  136   128    43 1
  137   129    43 1
  138   130    43 1
  139   131    39 1
  140   132    32 1
  141   133    31 1
  142   134    61 1
  143   135    56 1
  144   136    24 1
  145   137    24 1
  146   139   138 1
  147   140   139 1
  148   141   140 1
  149   142   140 1
  150   143   142 1
  151   144   138 1
  152   144   143 1
  153   145   144 1
  154   146   145 1
  155   147   146 1
  156   148   147 1
  157   149   148 1
  158   150   149 1
  159   151   150 1
  160   152   151 1
  161   153   152 1
  162   154   138 1
  163   155   138 1
  164   156   143 1
  165   157   147 1
  166   158   151 1
  167   160   159 1
  168   161   160 1
  169   162   161 1
  170   163   161 1
  171   164   163 1
  172   165   159 1
  173   165   164 1
  174   166   165 1
  175   167   166 1
  176   168   167 1
  177   169   168 1
  178   170   169 1
  179   171   170 1
  180   172   171 1
  181   173   172 1
  182   174   153 1
  183   174   173 1
  184   175   159 1
  185   176   159 1
  186   177   164 1
  187   178   168 1
  188   179   172 1
  189   180   179 1
  190   181   179 1
  191   182   179 1
  192   183   178 1
  193   184   178 1
  194   185   178 1
  195   186   177 1
  196   187   177 1
  197   188   177 1
  198   189   176 1
  199   190   176 1
  200   191   176 1
  201   192   175 1
  202   193   175 1
  203   194   175 1
  204   195   160 1
  205   196   160 1
  206   197   158 1
  207   198   158 1
  208   199   158 1
  209   200   157 1
  210   201   157 1
  211   202   157 1
  212   203   156 1
  213   204   156 1
  214   205   156 1
  215   206   155 1
  216   207   155 1
  217   208   155 1
  218   209   154 1
  219   210   154 1
  220   211   154 1
  221   212   141 1
  222   213   146 1
  223   214   145 1
  224   215   142 1
  225   216   142 1
  226   217   174 1
  227   218   173 1
  228   219   171 1
  229   220   170 1
  230   221   169 1
  231   222   140 1
  232   223   167 1
  233   224   166 1
  234   225   165 1
  235   226   163 1
  236   227   161 1
  237   228   139 1
  238   229   139 1
  239   230   153 1
  240   231   152 1
  241   232   150 1
  242   233   149 1
  243   234   148 1
  244   235   162 1
  245   65    153 1
  246   65    174 1
@<TRIPOS>SUBSTRUCTURE
      1 CLA               1 ****               0 ****  **** 
      2 LUT             138 ****               0 ****  **** 
