@<TRIPOS>MOLECULE
Cpptraj generated mol2 file.
  235   246     2     0     0
SMALL
USER_CHARGES


@<TRIPOS>ATOM
      1 CAA        79.6629   58.3631   34.6074 a2         1 CLA     -0.055900
      2 CAB        79.7793   62.6428   43.2497 c8         1 CLA     -0.148500
      3 CAC        72.6114   58.9185   42.8698 a2         1 CLA     -0.012600
      4 CAD        75.6679   55.7432   35.9436 ck         1 CLA      0.398800
      5 NA         78.7343   58.8331   38.0315 ns         1 CLA     -0.225500
      6 CBA        80.9214   58.4588   33.7069 a2         1 CLA     -0.135000
      7 CBB        80.8462   62.8612   44.0537 c0         1 CLA     -0.395200
      8 CBC        72.7114   57.4459   43.2067 a3         1 CLA     -0.037700
      9 CBD        77.1165   56.2432   35.6558 a1         1 CLA     -0.053900
     10 NB         78.6467   60.4133   40.4966 nm         1 CLA     -0.295700
     11 OBD        75.0953   54.8985   35.2703 o2         1 CLA     -0.494600
     12 CGA        81.5389   57.1419   33.2175 c4         1 CLA      0.827000
     13 CGD        78.0159   55.0485   35.6505 c4         1 CLA      0.655300
     14 ND         75.9749   58.0964   38.5961 nm         1 CLA     -0.291600
     15 CED        78.4429   53.0058   36.8134 a3         1 CLA      0.005400
     16 CHA        77.4421   57.2764   36.7510 cs         1 CLA     -0.123800
     17 CHB        80.5917   60.0184   39.0296 aa         1 CLA     -0.291900
     18 CHC        77.2815   60.8589   42.4505 aa         1 CLA     -0.090400
     19 CHD        73.9473   58.2080   39.9783 aa         1 CLA     -0.052000
     20 CMA        82.1640   57.9674   37.1677 a3         1 CLA     -0.230700
     21 CMB        81.9607   62.3391   40.9080 a3         1 CLA     -0.180800
     22 CMC        74.8909   60.4885   44.5109 a3         1 CLA     -0.134000
     23 CMD        72.9060   56.0655   38.0692 a3         1 CLA     -0.141100
     24 C1         82.3075   54.9781   33.9908 a2         1 CLA      0.023000
     25 C1A        78.6163   58.0355   36.9470 ac         1 CLA     -0.015100
     26 C1B        79.9488   60.5929   40.1532 cr         1 CLA      0.054700
     27 C1C        76.0077   60.3382   42.1526 cn         1 CLA     -0.005600
     28 C1D        74.7220   57.7369   38.8926 ap         1 CLA     -0.047300
     29 O1A        81.7475   56.8428   32.0267 o2         1 CLA     -0.610800
     30 O1D        78.9062   54.7803   34.8237 o2         1 CLA     -0.558200
     31 C2         83.0802   54.5681   35.2373 c8         1 CLA     -0.325100
     32 C2A        79.8478   57.9410   36.0543 a1         1 CLA      0.098600
     33 C2B        80.5973   61.6106   41.0786 cb         1 CLA      0.088500
     34 C2C        74.8789   60.1682   43.0336 cb         1 CLA      0.053700
     35 C2D        74.2119   56.6833   38.0043 cb         1 CLA      0.058900
     36 O2A        81.7834   56.2705   34.2482 o1         1 CLA     -0.437200
     37 O2D        77.7887   54.2837   36.8030 o1         1 CLA     -0.357600
     38 C3         84.3705   54.3426   35.2366 c5         1 CLA      0.031200
     39 C3A        80.8272   58.7983   36.8840 a1         1 CLA      0.166800
     40 C3B        79.6902   61.7926   42.0652 cb         1 CLA      0.035000
     41 C3C        73.9202   59.4243   42.3112 cb         1 CLA     -0.089900
     42 C3D        75.2775   56.5085   37.1169 cb         1 CLA     -0.035900
     43 C4         85.0311   53.1288   34.8622 a3         1 CLA     -0.053300
     44 C4A        80.0434   59.1929   38.0922 ac         1 CLA      0.001800
     45 C4B        78.4947   60.9976   41.7114 cn         1 CLA     -0.020900
     46 C4C        74.4497   59.1127   41.0517 cr         1 CLA     -0.044400
     47 C4D        76.3463   57.2855   37.5611 c6         1 CLA     -0.046000
     48 C5         85.2728   55.5414   35.3741 a2         1 CLA     -0.070400
     49 C6         85.9285   55.5882   36.7906 a2         1 CLA      0.043900
     50 C7         86.5253   57.0052   36.9870 a2         1 CLA     -0.150000
     51 C8         87.5280   57.1229   38.1585 a1         1 CLA      0.064200
     52 C9         88.8214   56.3260   37.8256 a3         1 CLA     -0.259300
     53 C10        87.0143   56.6880   39.5300 a2         1 CLA     -0.071900
     54 C11        85.8926   57.4446   40.1748 a2         1 CLA      0.014500
     55 C12        85.9570   57.1857   41.7074 a2         1 CLA     -0.112100
     56 C13        86.7580   58.1290   42.6753 a1         1 CLA      0.089200
     57 C14        88.3080   58.3455   42.2491 a3         1 CLA     -0.239100
     58 C15        86.5936   57.4596   44.0535 a2         1 CLA     -0.102200
     59 C16        87.0094   58.2633   45.2922 a2         1 CLA      0.023900
     60 C17        86.3169   59.6281   45.4704 a2         1 CLA     -0.105700
     61 C18        84.8123   59.5666   45.7882 a1         1 CLA      0.206800
     62 C19        84.5279   59.0410   47.2128 a3         1 CLA     -0.280100
     63 C20        84.1357   60.9617   45.6097 a3         1 CLA     -0.280100
     64 NC         75.7629   59.6721   40.9901 nx         1 CLA     -0.309200
     65 MG         77.1977   59.4088   39.4884 mg         1 CLA      0.895000
     66 HMD3       72.8219   55.1915   37.3972 dc         1 CLA      0.064300
     67 HMD2       72.7262   55.7328   39.1374 dc         1 CLA      0.064300
     68 HMD1       72.2222   56.8894   37.7691 dc         1 CLA      0.064300
     69 HMC3       75.4707   61.3431   44.8425 dc         1 CLA      0.052100
     70 HMC2       73.8854   60.8468   44.8125 dc         1 CLA      0.052100
     71 HMC1       75.2626   59.5918   45.0734 dc         1 CLA      0.052100
     72 HMB3       82.7645   61.6593   41.1876 dc         1 CLA      0.063600
     73 HMB2       81.9864   62.6671   39.8786 dc         1 CLA      0.063600
     74 HMB1       82.0110   63.2174   41.5532 dc         1 CLA      0.063600
     75 HMA3       81.8875   57.2436   37.9337 dc         1 CLA      0.058300
     76 HMA2       82.4169   57.2566   36.3812 dc         1 CLA      0.058300
     77 HMA1       82.9940   58.6443   37.5275 dc         1 CLA      0.058300
     78 HED3       78.1524   52.3565   35.9610 dc         1 CLA      0.079300
     79 HED2       79.4848   53.2320   36.8251 dc         1 CLA      0.079300
     80 HED1       78.2741   52.4513   37.7673 dc         1 CLA      0.079300
     81 HBC3       71.8598   57.0707   43.7146 dc         1 CLA      0.016300
     82 HBC2       72.9652   56.7644   42.3977 dc         1 CLA      0.016300
     83 HBC1       73.6537   57.3064   43.8105 dc         1 CLA      0.016300
     84 HBB2       80.8188   63.5177   44.8942 da         1 CLA      0.183000
     85 HBB1       81.7970   62.4723   43.6977 da         1 CLA      0.183000
     86 HBA2       80.6904   59.0168   32.8034 dc         1 CLA      0.029400
     87 HBA1       81.6349   59.0636   34.2613 dc         1 CLA      0.029400
     88 HAC2       72.4246   59.4959   43.7745 dc         1 CLA      0.029300
     89 HAC1       71.8638   59.0861   42.1047 dc         1 CLA      0.029300
     90 HAA2       79.0377   57.7196   33.9881 dc         1 CLA      0.028700
     91 HAA1       79.2135   59.3558   34.5783 dc         1 CLA      0.028700
     92 H203       84.4061   61.2307   44.5905 dc         1 CLA      0.065600
     93 H202       83.0271   60.9102   45.5284 dc         1 CLA      0.065600
     94 H201       84.4475   61.6969   46.3038 dc         1 CLA      0.065600
     95 H193       84.9967   58.0522   47.3309 dc         1 CLA      0.065600
     96 H192       85.0365   59.6969   47.8400 dc         1 CLA      0.065600
     97 H191       83.4748   59.0080   47.5271 dc         1 CLA      0.065600
     98 H172       86.8338   59.9333   46.4076 dc         1 CLA      0.027600
     99 H171       86.4654   60.3171   44.6807 dc         1 CLA      0.027600
    100 H162       86.9139   57.5634   46.1482 dc         1 CLA      0.002900
    101 H161       88.0860   58.5488   45.3404 dc         1 CLA      0.002900
    102 H152       85.5414   57.2048   44.1649 dc         1 CLA      0.029100
    103 H151       87.2349   56.5795   44.0413 dc         1 CLA      0.029100
    104 H143       88.7843   57.3327   42.1642 dc         1 CLA      0.063600
    105 H142       88.4014   58.8881   41.2382 dc         1 CLA      0.063600
    106 H141       88.6808   58.8599   43.1285 dc         1 CLA      0.063600
    107 H122       84.9580   57.1621   42.0937 dc         1 CLA      0.032500
    108 H121       86.4256   56.1806   41.8574 dc         1 CLA      0.032500
    109 H112       86.0172   58.5071   40.1208 dc         1 CLA      0.006600
    110 H111       85.0201   57.1780   39.6721 dc         1 CLA      0.006600
    111 H102       86.6778   55.6475   39.4063 dc         1 CLA      0.024100
    112 H101       87.8531   56.6946   40.1640 dc         1 CLA      0.024100
    113 HHD        72.9912   57.7220   40.1981 da         1 CLA      0.174300
    114 HHC        77.3655   60.9317   43.5700 da         1 CLA      0.136800
    115 HHB        81.6369   60.2987   38.8643 da         1 CLA      0.138300
    116 HBD        77.1246   56.6577   34.6868 dc         1 CLA      0.107700
    117 HAB        78.8670   63.1248   43.5470 da         1 CLA      0.155200
    118 H93        89.2924   56.7339   36.9394 dc         1 CLA      0.069500
    119 H92        89.5564   56.4319   38.6309 dc         1 CLA      0.069500
    120 H91        88.6100   55.2488   37.7911 dc         1 CLA      0.069500
    121 H8         87.8701   58.2061   38.2655 dc         1 CLA      0.029300
    122 H72        87.0076   57.2900   36.0437 dc         1 CLA      0.044400
    123 H71        85.7541   57.7285   37.1230 dc         1 CLA      0.044400
    124 H62        85.2060   55.6061   37.5874 dc         1 CLA      0.015600
    125 H61        86.7100   54.8317   36.9574 dc         1 CLA      0.015600
    126 H52        85.9925   55.6083   34.5818 dc         1 CLA      0.033200
    127 H51        84.6482   56.4064   35.2244 dc         1 CLA      0.033200
    128 H43        85.6546   53.3075   34.0073 dc         1 CLA      0.037000
    129 H42        85.7108   52.8191   35.6813 dc         1 CLA      0.037000
    130 H41        84.3168   52.3440   34.6837 dc         1 CLA      0.037000
    131 H3A        80.9794   59.7240   36.3411 dc         1 CLA      0.041100
    132 H2A        80.1078   56.8962   36.0877 dc         1 CLA      0.083100
    133 H2         82.5481   54.4554   36.2115 da         1 CLA      0.180900
    134 H18        84.3190   58.9275   45.1077 dc         1 CLA     -0.003900
    135 H13        86.1046   59.0129   42.6933 dc         1 CLA      0.019700
    136 H12        81.5324   54.2214   33.8236 dc         1 CLA      0.120400
    137 H11        82.8974   54.9601   33.0966 dc         1 CLA      0.120400
    138 C1         69.2430   61.9408   49.2268 Z1         2 LUT      0.509236
    139 C2         68.1197   61.8395   50.2825 Z2         2 LUT     -0.434695
    140 C3         67.4767   63.1514   50.7513 Z3         2 LUT      0.437453
    141 O3         68.0450   63.5675   52.0120 S1         2 LUT     -0.547129
    142 C4         67.6661   64.2739   49.7656 Z4         2 LUT     -0.468603
    143 C5         68.0547   63.9947   48.2862 Z5         2 LUT      0.279246
    144 C6         68.9340   62.9932   48.0618 Z6         2 LUT     -0.305473
    145 C7         69.1587   62.5278   46.7333 Z7         2 LUT      0.069402
    146 C8         70.4201   62.4641   46.2147 Z8         2 LUT     -0.191631
    147 C9         70.8485   62.3980   44.8574 Z9         2 LUT      0.196698
    148 C10        71.9976   63.0271   44.5214 Y1         2 LUT     -0.208611
    149 C11        72.7171   63.1031   43.2479 Y2         2 LUT      0.030784
    150 C12        73.8721   63.8221   43.0726 Y3         2 LUT     -0.220316
    151 C13        74.8404   63.7757   41.9797 Y4         2 LUT      0.215937
    152 C14        76.0527   64.3655   42.2406 Y5         2 LUT     -0.185793
    153 C15        77.2166   64.4971   41.4878 Y6         2 LUT     -0.057835
    154 C16        69.5159   60.4476   48.8598 Y7         2 LUT     -0.405615
    155 C17        70.4741   62.6081   49.9209 Y7         2 LUT     -0.405615
    156 C18        67.2262   64.8037   47.3176 Y9         2 LUT     -0.369639
    157 C19        69.9370   61.6824   43.8111 W1         2 LUT     -0.333362
    158 C20        74.4639   63.0418   40.7395 W2         2 LUT     -0.323439
    159 C21        88.5077   65.7640   35.1260 Z1         2 LUT      0.406104
    160 C22        89.1809   64.9145   33.9995 Z2         2 LUT     -0.404965
    161 C23        89.3487   65.6579   32.6866 Z3         2 LUT      0.391255
    162 O23        89.9277   64.7431   31.7282 S1         2 LUT     -0.528210
    163 C24        88.1488   66.5229   32.4215 W6         2 LUT     -0.258361
    164 C25        87.1907   66.8713   33.2967 Z5         2 LUT      0.133546
    165 C26        87.0631   66.0970   34.6426 W8         2 LUT     -0.147008
    166 C27        86.1794   66.8034   35.6489 Z7         2 LUT      0.023843
    167 C28        85.0067   66.4364   36.2602 Z8         2 LUT     -0.216987
    168 C29        84.4997   66.9510   37.5272 Z9         2 LUT      0.206524
    169 C30        83.3443   66.2985   37.9710 Y1         2 LUT     -0.215556
    170 C31        82.6389   66.4629   39.2324 Y2         2 LUT      0.025142
    171 C32        81.4347   65.8325   39.6436 Y3         2 LUT     -0.212209
    172 C33        80.6148   65.9623   40.7899 Y4         2 LUT      0.240937
    173 C34        79.3852   65.3646   40.7475 Y5         2 LUT     -0.218862
    174 C35        78.2760   65.3628   41.7157 Y6         2 LUT     -0.023547
    175 C36        89.3492   66.9497   35.5357 Y7         2 LUT     -0.393485
    176 C37        88.3230   64.9294   36.3228 Y7         2 LUT     -0.393485
    177 C38        86.0946   67.8882   32.8465 Y9         2 LUT     -0.387526
    178 C39        85.1926   68.0264   38.3398 W1         2 LUT     -0.322618
    179 C40        81.1585   66.9307   41.8596 W2         2 LUT     -0.358472
    180 H403       81.3758   67.9261   41.4047 R7         2 LUT      0.097720
    181 H402       80.3556   67.0693   42.4920 R7         2 LUT      0.097720
    182 H401       81.9927   66.5375   42.4745 R7         2 LUT      0.097720
    183 H393       84.5268   68.5074   39.0688 R4         2 LUT      0.082505
    184 H392       86.0653   67.5920   38.8383 R4         2 LUT      0.082505
    185 H391       85.4583   68.7483   37.5905 R4         2 LUT      0.082505
    186 H383       85.3910   67.3259   32.2182 R1         2 LUT      0.104030
    187 H382       85.4626   68.2964   33.6339 R1         2 LUT      0.104030
    188 H381       86.4713   68.6597   32.1497 R1         2 LUT      0.104030
    189 H373       87.8630   65.6796   37.0674 T4         2 LUT      0.089537
    190 H372       87.5221   64.2006   36.2687 T4         2 LUT      0.089537
    191 H371       89.2423   64.5962   36.8546 T4         2 LUT      0.089537
    192 H363       88.9019   67.5731   36.2990 T4         2 LUT      0.089537
    193 H362       90.1932   66.5930   36.0422 T4         2 LUT      0.089537
    194 H361       89.7399   67.5079   34.7581 T4         2 LUT      0.089537
    195 H222       90.1918   64.5255   34.2086 U2         2 LUT      0.127376
    196 H221       88.5319   64.0324   33.8762 U2         2 LUT      0.127376
    197 H203       75.0566   63.3493   39.8654 R7         2 LUT      0.087068
    198 H202       74.6647   61.9624   40.8299 R7         2 LUT      0.087068
    199 H201       73.3915   63.1137   40.5447 R7         2 LUT      0.087068
    200 H193       70.3442   60.7832   43.4105 R4         2 LUT      0.089716
    201 H192       68.9507   61.3794   44.2686 R4         2 LUT      0.089716
    202 H191       69.5347   62.2908   42.9791 R4         2 LUT      0.089716
    203 H183       67.0730   64.2833   46.4117 R1         2 LUT      0.094572
    204 H182       66.2310   65.0984   47.7213 R1         2 LUT      0.094572
    205 H181       67.7850   65.7485   47.1056 R1         2 LUT      0.094572
    206 H173       71.2499   61.9269   50.3632 T4         2 LUT      0.093752
    207 H172       71.0233   63.2995   49.2501 T4         2 LUT      0.093752
    208 H171       70.1705   63.3105   50.7049 T4         2 LUT      0.093752
    209 H163       70.3516   60.3986   48.2137 T4         2 LUT      0.093752
    210 H162       69.6631   59.7595   49.6772 T4         2 LUT      0.093752
    211 H161       68.6799   59.9213   48.4079 T4         2 LUT      0.093752
    212 HO3        67.6695   62.9603   52.7167 Q1         2 LUT      0.300121
    213 H8         71.1455   62.8317   46.9605 U7         2 LUT      0.080784
    214 H7         68.1967   62.3948   46.1080 U6         2 LUT      0.042190
    215 H42        66.7076   64.8153   49.7397 U5         2 LUT      0.145166
    216 H41        68.4367   64.9577   50.1658 U5         2 LUT      0.145166
    217 H35        78.2873   65.8918   42.6940 T3         2 LUT      0.077919
    218 H34        79.2924   64.6466   40.0038 T2         2 LUT      0.073626
    219 H32        80.9739   65.2146   38.7876 T1         2 LUT      0.092510
    220 H31        83.0250   67.1998   39.9545 U9         2 LUT      0.070048
    221 H30        82.9971   65.5567   37.2965 U8         2 LUT      0.085442
    222 H3         66.3878   63.0142   50.8197 U3         2 LUT     -0.031596
    223 H28        84.6163   65.4912   35.9460 U7         2 LUT      0.084728
    224 H27        86.5070   67.7529   35.9982 U6         2 LUT      0.087291
    225 H26        86.4752   65.2377   34.2229 Q6         2 LUT      0.075325
    226 H24        88.2419   67.1191   31.4505 Q5         2 LUT      0.094482
    227 H23        90.1640   66.3788   32.9175 U3         2 LUT     -0.024869
    228 H22        67.3009   61.3374   49.8571 U2         2 LUT      0.127376
    229 H21        68.4769   61.2089   51.1798 U2         2 LUT      0.127376
    230 H15        77.3142   63.9248   40.5864 T3         2 LUT      0.093200
    231 H14        76.3396   64.6234   43.2430 T2         2 LUT      0.068865
    232 H12        74.1290   64.3434   43.9694 T1         2 LUT      0.095507
    233 H11        72.3229   62.5174   42.4650 U9         2 LUT      0.068930
    234 H10        72.5406   63.6045   45.2939 U8         2 LUT      0.083911
    235 H1         89.7068   65.0512   30.8713 Q1         2 LUT      0.297311
@<TRIPOS>BOND
    1     6     1 1
    2     7     2 1
    3     8     3 1
    4     9     4 1
    5    11     4 1
    6    12     6 1
    7    13     9 1
    8    16     9 1
    9    25     5 1
   10    25    16 1
   11    26    10 1
   12    26    17 1
   13    27    18 1
   14    28    14 1
   15    28    19 1
   16    29    12 1
   17    30    13 1
   18    31    24 1
   19    32     1 1
   20    32    25 1
   21    33    21 1
   22    33    26 1
   23    34    22 1
   24    34    27 1
   25    35    23 1
   26    35    28 1
   27    36    12 1
   28    36    24 1
   29    37    13 1
   30    37    15 1
   31    38    31 1
   32    39    20 1
   33    39    32 1
   34    40     2 1
   35    40    33 1
   36    41     3 1
   37    41    34 1
   38    42     4 1
   39    42    35 1
   40    43    38 1
   41    44     5 1
   42    44    17 1
   43    44    39 1
   44    45    10 1
   45    45    18 1
   46    45    40 1
   47    46    19 1
   48    46    41 1
   49    47    14 1
   50    47    16 1
   51    47    42 1
   52    48    38 1
   53    49    48 1
   54    50    49 1
   55    51    50 1
   56    52    51 1
   57    53    51 1
   58    54    53 1
   59    55    54 1
   60    56    55 1
   61    57    56 1
   62    58    56 1
   63    59    58 1
   64    60    59 1
   65    61    60 1
   66    62    61 1
   67    63    61 1
   68    64    27 1
   69    64    46 1
   70    65     5 1
   71    65    10 1
   72    65    64 1
   73    65    14 1
   74    66    23 1
   75    67    23 1
   76    68    23 1
   77    69    22 1
   78    70    22 1
   79    71    22 1
   80    72    21 1
   81    73    21 1
   82    74    21 1
   83    75    20 1
   84    76    20 1
   85    77    20 1
   86    78    15 1
   87    79    15 1
   88    80    15 1
   89    81     8 1
   90    82     8 1
   91    83     8 1
   92    84     7 1
   93    85     7 1
   94    86     6 1
   95    87     6 1
   96    88     3 1
   97    89     3 1
   98    90     1 1
   99    91     1 1
  100    92    63 1
  101    93    63 1
  102    94    63 1
  103    95    62 1
  104    96    62 1
  105    97    62 1
  106    98    60 1
  107    99    60 1
  108   100    59 1
  109   101    59 1
  110   102    58 1
  111   103    58 1
  112   104    57 1
  113   105    57 1
  114   106    57 1
  115   107    55 1
  116   108    55 1
  117   109    54 1
  118   110    54 1
  119   111    53 1
  120   112    53 1
  121   113    19 1
  122   114    18 1
  123   115    17 1
  124   116     9 1
  125   117     2 1
  126   118    52 1
  127   119    52 1
  128   120    52 1
  129   121    51 1
  130   122    50 1
  131   123    50 1
  132   124    49 1
  133   125    49 1
  134   126    48 1
  135   127    48 1
  136   128    43 1
  137   129    43 1
  138   130    43 1
  139   131    39 1
  140   132    32 1
  141   133    31 1
  142   134    61 1
  143   135    56 1
  144   136    24 1
  145   137    24 1
  146   139   138 1
  147   140   139 1
  148   141   140 1
  149   142   140 1
  150   143   142 1
  151   144   138 1
  152   144   143 1
  153   145   144 1
  154   146   145 1
  155   147   146 1
  156   148   147 1
  157   149   148 1
  158   150   149 1
  159   151   150 1
  160   152   151 1
  161   153   152 1
  162   154   138 1
  163   155   138 1
  164   156   143 1
  165   157   147 1
  166   158   151 1
  167   160   159 1
  168   161   160 1
  169   162   161 1
  170   163   161 1
  171   164   163 1
  172   165   159 1
  173   165   164 1
  174   166   165 1
  175   167   166 1
  176   168   167 1
  177   169   168 1
  178   170   169 1
  179   171   170 1
  180   172   171 1
  181   173   172 1
  182   174   153 1
  183   174   173 1
  184   175   159 1
  185   176   159 1
  186   177   164 1
  187   178   168 1
  188   179   172 1
  189   180   179 1
  190   181   179 1
  191   182   179 1
  192   183   178 1
  193   184   178 1
  194   185   178 1
  195   186   177 1
  196   187   177 1
  197   188   177 1
  198   189   176 1
  199   190   176 1
  200   191   176 1
  201   192   175 1
  202   193   175 1
  203   194   175 1
  204   195   160 1
  205   196   160 1
  206   197   158 1
  207   198   158 1
  208   199   158 1
  209   200   157 1
  210   201   157 1
  211   202   157 1
  212   203   156 1
  213   204   156 1
  214   205   156 1
  215   206   155 1
  216   207   155 1
  217   208   155 1
  218   209   154 1
  219   210   154 1
  220   211   154 1
  221   212   141 1
  222   213   146 1
  223   214   145 1
  224   215   142 1
  225   216   142 1
  226   217   174 1
  227   218   173 1
  228   219   171 1
  229   220   170 1
  230   221   169 1
  231   222   140 1
  232   223   167 1
  233   224   166 1
  234   225   165 1
  235   226   163 1
  236   227   161 1
  237   228   139 1
  238   229   139 1
  239   230   153 1
  240   231   152 1
  241   232   150 1
  242   233   149 1
  243   234   148 1
  244   235   162 1
  245   65    153 1
  246   65    174 1
@<TRIPOS>SUBSTRUCTURE
      1 CLA               1 ****               0 ****  **** 
      2 LUT             138 ****               0 ****  **** 
