@<TRIPOS>MOLECULE
Cpptraj generated mol2 file.
  235   246     2     0     0
SMALL
USER_CHARGES


@<TRIPOS>ATOM
      1 CAA        78.4518   58.4604   35.0224 a2         1 CLA     -0.055900
      2 CAB        78.3767   63.0801   43.7761 c8         1 CLA     -0.148500
      3 CAC        71.1724   59.3081   43.4245 a2         1 CLA     -0.012600
      4 CAD        74.0182   56.2813   36.2737 ck         1 CLA      0.398800
      5 NA         77.0967   59.4974   38.2482 ns         1 CLA     -0.225500
      6 CBA        79.6908   57.8717   34.3580 a2         1 CLA     -0.135000
      7 CBB        77.5072   63.8994   44.5052 c0         1 CLA     -0.395200
      8 CBC        71.0761   57.7312   43.5242 a3         1 CLA     -0.037700
      9 CBD        75.4968   56.6729   35.9560 a1         1 CLA     -0.053900
     10 NB         77.0428   61.2322   40.7457 nm         1 CLA     -0.295700
     11 OBD        73.4008   55.4349   35.6386 o2         1 CLA     -0.494600
     12 CGA        79.8999   56.3471   34.0372 c4         1 CLA      0.827000
     13 CGD        76.3967   55.3750   36.0379 c4         1 CLA      0.655300
     14 ND         74.2977   58.7043   38.8214 nm         1 CLA     -0.291600
     15 CED        76.7569   53.3309   37.2925 a3         1 CLA      0.005400
     16 CHA        75.8615   57.7938   37.0026 cs         1 CLA     -0.123800
     17 CHB        78.9366   61.0116   39.1876 aa         1 CLA     -0.291900
     18 CHC        75.8545   61.2862   42.9184 aa         1 CLA     -0.090400
     19 CHD        72.4171   58.7203   40.4957 aa         1 CLA     -0.052000
     20 CMA        80.6376   58.8882   38.0560 a3         1 CLA     -0.230700
     21 CMB        80.4120   62.9229   41.2965 a3         1 CLA     -0.180800
     22 CMC        73.6332   60.9156   44.9547 a3         1 CLA     -0.134000
     23 CMD        71.1790   56.6269   38.2875 a3         1 CLA     -0.141100
     24 C1         80.6150   54.2575   35.0655 a2         1 CLA      0.023000
     25 C1A        77.0411   58.5720   37.2259 ac         1 CLA     -0.015100
     26 C1B        78.2965   61.5544   40.3335 cr         1 CLA      0.054700
     27 C1C        74.6053   60.6893   42.5593 cn         1 CLA     -0.005600
     28 C1D        73.0139   58.3196   39.2694 ap         1 CLA     -0.047300
     29 O1A        79.5554   55.7610   32.9569 o2         1 CLA     -0.610800
     30 O1D        77.2957   55.0608   35.2726 o2         1 CLA     -0.558200
     31 C2         80.7282   53.6285   36.4959 c8         1 CLA     -0.325100
     32 C2A        78.4916   58.3299   36.6068 a1         1 CLA      0.098600
     33 C2B        78.9623   62.3547   41.3767 cb         1 CLA      0.088500
     34 C2C        73.5173   60.4945   43.5231 cb         1 CLA      0.053700
     35 C2D        72.5178   57.3556   38.2584 cb         1 CLA      0.058900
     36 O2A        80.3628   55.6949   35.1435 o1         1 CLA     -0.437200
     37 O2D        76.0549   54.5726   37.1250 o1         1 CLA     -0.357600
     38 C3         81.8796   53.4667   37.2300 c5         1 CLA      0.031200
     39 C3A        79.3418   59.4047   37.2873 a1         1 CLA      0.166800
     40 C3B        78.1528   62.3592   42.4885 cb         1 CLA      0.035000
     41 C3C        72.4978   59.7800   42.7912 cb         1 CLA     -0.089900
     42 C3D        73.5910   57.1153   37.4038 cb         1 CLA     -0.035900
     43 C4         82.7766   52.2482   37.1933 a3         1 CLA     -0.053300
     44 C4A        78.3878   60.0378   38.3106 ac         1 CLA      0.001800
     45 C4B        76.9835   61.5391   42.1200 cn         1 CLA     -0.020900
     46 C4C        73.0393   59.4985   41.4903 cr         1 CLA     -0.044400
     47 C4D        74.6532   57.9114   37.7921 c6         1 CLA     -0.046000
     48 C5         82.1749   54.5393   38.2511 a2         1 CLA     -0.070400
     49 C6         83.4892   55.4533   38.0373 a2         1 CLA      0.043900
     50 C7         83.5327   56.5840   39.0995 a2         1 CLA     -0.150000
     51 C8         84.1563   57.9495   38.5745 a1         1 CLA      0.064200
     52 C9         85.2963   57.7546   37.6018 a3         1 CLA     -0.259300
     53 C10        84.5986   58.8779   39.7256 a2         1 CLA     -0.071900
     54 C11        83.3688   59.4060   40.5198 a2         1 CLA      0.014500
     55 C12        83.6625   60.1821   41.8494 a2         1 CLA     -0.112100
     56 C13        84.4892   59.5484   42.9467 a1         1 CLA      0.089200
     57 C14        83.8161   58.3273   43.6271 a3         1 CLA     -0.239100
     58 C15        84.9343   60.6868   43.9483 a2         1 CLA     -0.102200
     59 C16        83.7367   61.1782   44.8528 a2         1 CLA      0.023900
     60 C17        84.1274   62.4370   45.5686 a2         1 CLA     -0.105700
     61 C18        83.1843   62.8435   46.7154 a1         1 CLA      0.206800
     62 C19        83.7670   63.8356   47.7121 a3         1 CLA     -0.280100
     63 C20        81.8298   63.4501   46.1520 a3         1 CLA     -0.280100
     64 NC         74.2594   60.1159   41.3588 nx         1 CLA     -0.309200
     65 MG         75.5546   59.9864   39.6320 mg         1 CLA      0.895000
     66 HMD3       71.3374   55.6277   37.8662 dc         1 CLA      0.064300
     67 HMD2       70.8911   56.6522   39.3349 dc         1 CLA      0.064300
     68 HMD1       70.6022   57.3044   37.6712 dc         1 CLA      0.064300
     69 HMC3       73.8758   61.9778   45.1969 dc         1 CLA      0.052100
     70 HMC2       72.6984   60.7462   45.4049 dc         1 CLA      0.052100
     71 HMC1       74.3425   60.2741   45.4024 dc         1 CLA      0.052100
     72 HMB3       81.0576   62.1293   41.7011 dc         1 CLA      0.063600
     73 HMB2       80.6989   63.1823   40.2856 dc         1 CLA      0.063600
     74 HMB1       80.6472   63.8198   41.8611 dc         1 CLA      0.063600
     75 HMA3       80.3884   58.5652   39.0985 dc         1 CLA      0.058300
     76 HMA2       81.1970   58.1244   37.5106 dc         1 CLA      0.058300
     77 HMA1       81.3120   59.7693   38.1353 dc         1 CLA      0.058300
     78 HED3       76.9139   52.7359   36.3058 dc         1 CLA      0.079300
     79 HED2       77.7692   53.5757   37.6907 dc         1 CLA      0.079300
     80 HED1       76.1863   52.6704   37.9097 dc         1 CLA      0.079300
     81 HBC3       70.1025   57.4567   43.9191 dc         1 CLA      0.016300
     82 HBC2       71.3444   57.1766   42.6343 dc         1 CLA      0.016300
     83 HBC1       71.8814   57.5240   44.1836 dc         1 CLA      0.016300
     84 HBB2       77.7916   64.3647   45.4408 da         1 CLA      0.183000
     85 HBB1       76.5210   64.0612   44.1985 da         1 CLA      0.183000
     86 HBA2       79.8198   58.3648   33.4594 dc         1 CLA      0.029400
     87 HBA1       80.5344   58.2725   34.9308 dc         1 CLA      0.029400
     88 HAC2       71.1830   59.7100   44.4244 dc         1 CLA      0.029300
     89 HAC1       70.3119   59.7181   42.9073 dc         1 CLA      0.029300
     90 HAA2       77.6703   57.8791   34.5254 dc         1 CLA      0.028700
     91 HAA1       78.1599   59.4929   34.7968 dc         1 CLA      0.028700
     92 H203       82.0727   64.2571   45.4122 dc         1 CLA      0.065600
     93 H202       81.3792   62.5236   45.8354 dc         1 CLA      0.065600
     94 H201       81.2418   63.8663   46.9633 dc         1 CLA      0.065600
     95 H193       83.8578   64.8286   47.2913 dc         1 CLA      0.065600
     96 H192       83.0176   63.8921   48.5330 dc         1 CLA      0.065600
     97 H191       84.6942   63.5496   48.1761 dc         1 CLA      0.065600
     98 H172       85.0891   62.3681   46.0417 dc         1 CLA      0.027600
     99 H171       84.0702   63.1744   44.7307 dc         1 CLA      0.027600
    100 H162       82.7914   61.3406   44.3522 dc         1 CLA      0.002900
    101 H161       83.6092   60.4656   45.6633 dc         1 CLA      0.002900
    102 H152       85.8133   60.4779   44.5746 dc         1 CLA      0.029100
    103 H151       85.2375   61.5406   43.3486 dc         1 CLA      0.029100
    104 H143       83.6708   57.5089   42.9464 dc         1 CLA      0.063600
    105 H142       84.2927   57.9546   44.5233 dc         1 CLA      0.063600
    106 H141       82.7883   58.6999   43.9059 dc         1 CLA      0.063600
    107 H122       84.1839   61.1186   41.4629 dc         1 CLA      0.032500
    108 H121       82.6884   60.4339   42.3052 dc         1 CLA      0.032500
    109 H112       82.9065   60.1450   39.8184 dc         1 CLA      0.006600
    110 H111       82.6520   58.5946   40.7078 dc         1 CLA      0.006600
    111 H102       85.3399   58.4112   40.4344 dc         1 CLA      0.024100
    112 H101       85.2032   59.7394   39.4040 dc         1 CLA      0.024100
    113 HHD        71.4763   58.4361   40.8524 da         1 CLA      0.174300
    114 HHC        76.0196   61.5086   43.9968 da         1 CLA      0.136800
    115 HHB        79.9648   61.3354   38.9736 da         1 CLA      0.138300
    116 HBD        75.6237   57.0469   34.9694 dc         1 CLA      0.107700
    117 HAB        79.4098   63.0301   44.1442 da         1 CLA      0.155200
    118 H93        86.0926   57.1284   37.9770 dc         1 CLA      0.069500
    119 H92        84.9213   57.2525   36.7636 dc         1 CLA      0.069500
    120 H91        85.6742   58.7782   37.3111 dc         1 CLA      0.069500
    121 H8         83.4077   58.4089   37.9468 dc         1 CLA      0.029300
    122 H72        82.4907   56.7970   39.3787 dc         1 CLA      0.044400
    123 H71        84.1068   56.2225   39.8699 dc         1 CLA      0.044400
    124 H62        84.4598   54.9400   37.8645 dc         1 CLA      0.015600
    125 H61        83.2087   55.8066   37.0808 dc         1 CLA      0.015600
    126 H52        81.3250   55.2235   38.1853 dc         1 CLA      0.033200
    127 H51        82.1256   54.2137   39.3211 dc         1 CLA      0.033200
    128 H43        83.3537   52.0370   38.0877 dc         1 CLA      0.037000
    129 H42        82.1591   51.4243   36.8752 dc         1 CLA      0.037000
    130 H41        83.5884   52.4885   36.5231 dc         1 CLA      0.037000
    131 H3A        79.7450   60.1508   36.5285 dc         1 CLA      0.041100
    132 H2A        78.9049   57.3708   36.8894 dc         1 CLA      0.083100
    133 H2         79.9670   53.1558   36.9795 da         1 CLA      0.180900
    134 H18        83.0172   61.9126   47.2704 dc         1 CLA     -0.003900
    135 H13        85.3843   59.2917   42.4161 dc         1 CLA      0.019700
    136 H12        79.8002   53.7764   34.5230 dc         1 CLA      0.120400
    137 H11        81.5044   54.2465   34.4402 dc         1 CLA      0.120400
    138 C1         67.3070   62.7036   50.9899 Z1         2 LUT      0.509236
    139 C2         67.2740   64.0339   51.7495 Z2         2 LUT     -0.434695
    140 C3         65.9040   64.6562   51.7988 Z3         2 LUT      0.437453
    141 O3         66.1297   65.9699   52.3024 S1         2 LUT     -0.547129
    142 C4         65.3522   64.7523   50.3889 Z4         2 LUT     -0.468603
    143 C5         66.0740   64.0821   49.2598 Z5         2 LUT      0.279246
    144 C6         66.9532   63.1156   49.5641 Z6         2 LUT     -0.305473
    145 C7         67.8312   62.6589   48.5417 Z7         2 LUT      0.069402
    146 C8         68.4464   63.3420   47.5435 Z8         2 LUT     -0.191631
    147 C9         69.1072   62.7539   46.3737 Z9         2 LUT      0.196698
    148 C10        69.9439   63.4952   45.5967 Y1         2 LUT     -0.208611
    149 C11        70.6762   63.2231   44.3947 Y2         2 LUT      0.030784
    150 C12        71.6336   64.0625   43.7849 Y3         2 LUT     -0.220316
    151 C13        72.6190   63.9098   42.7072 Y4         2 LUT      0.215937
    152 C14        73.7035   64.7983   42.6156 Y5         2 LUT     -0.185793
    153 C15        74.8764   64.7779   41.7294 Y6         2 LUT     -0.057835
    154 C16        66.2964   61.8563   51.7826 Y7         2 LUT     -0.405615
    155 C17        68.7420   62.1559   51.2346 Y7         2 LUT     -0.405615
    156 C18        65.9502   64.8334   47.9666 Y9         2 LUT     -0.369639
    157 C19        69.0215   61.2290   46.1204 W1         2 LUT     -0.333362
    158 C20        72.4107   63.0826   41.4582 W2         2 LUT     -0.323439
    159 C21        86.4785   66.1823   35.6205 Z1         2 LUT      0.406104
    160 C22        87.0686   65.6072   34.3537 Z2         2 LUT     -0.404965
    161 C23        87.0910   66.4653   33.0506 Z3         2 LUT      0.391255
    162 O23        87.8286   65.8605   31.9833 S1         2 LUT     -0.528210
    163 C24        85.7183   67.1018   32.9339 W6         2 LUT     -0.258361
    164 C25        84.7299   67.1076   33.8708 Z5         2 LUT      0.133546
    165 C26        84.9391   66.4168   35.2706 W8         2 LUT     -0.147008
    166 C27        84.1727   67.1153   36.3271 Z7         2 LUT      0.023843
    167 C28        82.8879   66.8275   36.7280 Z8         2 LUT     -0.216987
    168 C29        82.0649   67.2310   37.8607 Z9         2 LUT      0.206524
    169 C30        81.1086   66.3556   38.3463 Y1         2 LUT     -0.215556
    170 C31        80.3454   66.4596   39.6187 Y2         2 LUT      0.025142
    171 C32        79.1682   65.8443   39.8836 Y3         2 LUT     -0.212209
    172 C33        78.3390   66.0068   41.0585 Y4         2 LUT      0.240937
    173 C34        77.1571   65.3714   41.0967 Y5         2 LUT     -0.218862
    174 C35        76.0295   65.4773   41.9712 Y6         2 LUT     -0.023547
    175 C36        87.3089   67.4030   36.0998 Y7         2 LUT     -0.393485
    176 C37        86.7211   65.0702   36.6388 Y7         2 LUT     -0.393485
    177 C38        83.3804   67.7563   33.4087 Y9         2 LUT     -0.387526
    178 C39        82.5028   68.3868   38.6065 W1         2 LUT     -0.322618
    179 C40        78.6123   67.1508   42.0368 W2         2 LUT     -0.358472
    180 H403       78.1972   68.0853   41.6547 R7         2 LUT      0.097720
    181 H402       78.2724   66.9806   43.0492 R7         2 LUT      0.097720
    182 H401       79.6668   67.3069   42.0914 R7         2 LUT      0.097720
    183 H393       83.3823   68.1509   39.2316 R4         2 LUT      0.082505
    184 H392       82.7085   69.2199   37.9518 R4         2 LUT      0.082505
    185 H391       81.7737   68.6694   39.2876 R4         2 LUT      0.082505
    186 H383       83.6087   68.5803   32.7114 R1         2 LUT      0.104030
    187 H382       82.7739   67.0013   32.8934 R1         2 LUT      0.104030
    188 H381       82.9000   68.2098   34.3036 R1         2 LUT      0.104030
    189 H373       86.1445   65.1861   37.5851 T4         2 LUT      0.089537
    190 H372       86.5098   64.1256   36.1904 T4         2 LUT      0.089537
    191 H371       87.8188   64.9668   36.8998 T4         2 LUT      0.089537
    192 H363       87.2451   68.2127   35.3228 T4         2 LUT      0.089537
    193 H362       86.9053   67.8113   37.0352 T4         2 LUT      0.089537
    194 H361       88.3379   67.1644   36.3571 T4         2 LUT      0.089537
    195 H222       88.1391   65.5341   34.6011 U2         2 LUT      0.127376
    196 H221       86.7685   64.6092   34.0684 U2         2 LUT      0.127376
    197 H203       73.3069   62.5778   41.2038 R7         2 LUT      0.087068
    198 H202       71.5496   62.4228   41.5437 R7         2 LUT      0.087068
    199 H201       72.2254   63.6843   40.5475 R7         2 LUT      0.087068
    200 H193       67.9830   60.8753   46.2885 R4         2 LUT      0.089716
    201 H192       69.2284   60.8414   45.1346 R4         2 LUT      0.089716
    202 H191       69.7101   60.6889   46.6864 R4         2 LUT      0.089716
    203 H183       64.9427   65.2714   47.9000 R1         2 LUT      0.094572
    204 H182       66.6301   65.6950   47.9519 R1         2 LUT      0.094572
    205 H181       66.0267   64.1401   47.1541 R1         2 LUT      0.094572
    206 H173       69.0540   62.3343   52.2308 T4         2 LUT      0.093752
    207 H172       68.8997   61.0859   51.0797 T4         2 LUT      0.093752
    208 H171       69.4184   62.8155   50.6720 T4         2 LUT      0.093752
    209 H163       66.5282   60.8262   51.6388 T4         2 LUT      0.093752
    210 H162       66.3527   61.8833   52.8475 T4         2 LUT      0.093752
    211 H161       65.2808   61.8498   51.5093 T4         2 LUT      0.093752
    212 HO3        65.3603   66.1607   52.8821 Q1         2 LUT      0.300121
    213 H8         68.4697   64.4542   47.4360 U7         2 LUT      0.080784
    214 H7         67.8954   61.6169   48.4863 U6         2 LUT      0.042190
    215 H42        64.3412   64.2245   50.3297 U5         2 LUT      0.145166
    216 H41        65.0108   65.7531   50.1332 U5         2 LUT      0.145166
    217 H35        76.0487   66.1593   42.8540 T3         2 LUT      0.077919
    218 H34        76.9027   64.8203   40.2498 T2         2 LUT      0.073626
    219 H32        78.7459   65.0716   39.1493 T1         2 LUT      0.092510
    220 H31        80.7138   67.1434   40.3094 U9         2 LUT      0.070048
    221 H30        80.7793   65.5195   37.7876 U8         2 LUT      0.085442
    222 H3         65.1211   64.0791   52.3824 U3         2 LUT     -0.031596
    223 H28        82.3337   66.1200   36.0603 U7         2 LUT      0.084728
    224 H27        84.7369   67.8018   36.8560 U6         2 LUT      0.087291
    225 H26        84.4646   65.4550   35.0256 Q6         2 LUT      0.075325
    226 H24        85.5750   67.6080   31.9212 Q5         2 LUT      0.094482
    227 H23        87.6764   67.3014   33.3333 U3         2 LUT     -0.024869
    228 H22        67.5519   64.0343   52.7763 U2         2 LUT      0.127376
    229 H21        67.9183   64.7991   51.2230 U2         2 LUT      0.127376
    230 H15        74.8872   64.2525   40.8458 T3         2 LUT      0.093200
    231 H14        73.8373   65.3439   43.5098 T2         2 LUT      0.068865
    232 H12        71.7144   64.9497   44.4436 T1         2 LUT      0.095507
    233 H11        70.6430   62.2266   44.0146 U9         2 LUT      0.068930
    234 H10        70.0908   64.5264   46.0437 U8         2 LUT      0.083911
    235 H1         87.2376   65.2198   31.5910 Q1         2 LUT      0.297311
@<TRIPOS>BOND
    1     6     1 1
    2     7     2 1
    3     8     3 1
    4     9     4 1
    5    11     4 1
    6    12     6 1
    7    13     9 1
    8    16     9 1
    9    25     5 1
   10    25    16 1
   11    26    10 1
   12    26    17 1
   13    27    18 1
   14    28    14 1
   15    28    19 1
   16    29    12 1
   17    30    13 1
   18    31    24 1
   19    32     1 1
   20    32    25 1
   21    33    21 1
   22    33    26 1
   23    34    22 1
   24    34    27 1
   25    35    23 1
   26    35    28 1
   27    36    12 1
   28    36    24 1
   29    37    13 1
   30    37    15 1
   31    38    31 1
   32    39    20 1
   33    39    32 1
   34    40     2 1
   35    40    33 1
   36    41     3 1
   37    41    34 1
   38    42     4 1
   39    42    35 1
   40    43    38 1
   41    44     5 1
   42    44    17 1
   43    44    39 1
   44    45    10 1
   45    45    18 1
   46    45    40 1
   47    46    19 1
   48    46    41 1
   49    47    14 1
   50    47    16 1
   51    47    42 1
   52    48    38 1
   53    49    48 1
   54    50    49 1
   55    51    50 1
   56    52    51 1
   57    53    51 1
   58    54    53 1
   59    55    54 1
   60    56    55 1
   61    57    56 1
   62    58    56 1
   63    59    58 1
   64    60    59 1
   65    61    60 1
   66    62    61 1
   67    63    61 1
   68    64    27 1
   69    64    46 1
   70    65     5 1
   71    65    10 1
   72    65    64 1
   73    65    14 1
   74    66    23 1
   75    67    23 1
   76    68    23 1
   77    69    22 1
   78    70    22 1
   79    71    22 1
   80    72    21 1
   81    73    21 1
   82    74    21 1
   83    75    20 1
   84    76    20 1
   85    77    20 1
   86    78    15 1
   87    79    15 1
   88    80    15 1
   89    81     8 1
   90    82     8 1
   91    83     8 1
   92    84     7 1
   93    85     7 1
   94    86     6 1
   95    87     6 1
   96    88     3 1
   97    89     3 1
   98    90     1 1
   99    91     1 1
  100    92    63 1
  101    93    63 1
  102    94    63 1
  103    95    62 1
  104    96    62 1
  105    97    62 1
  106    98    60 1
  107    99    60 1
  108   100    59 1
  109   101    59 1
  110   102    58 1
  111   103    58 1
  112   104    57 1
  113   105    57 1
  114   106    57 1
  115   107    55 1
  116   108    55 1
  117   109    54 1
  118   110    54 1
  119   111    53 1
  120   112    53 1
  121   113    19 1
  122   114    18 1
  123   115    17 1
  124   116     9 1
  125   117     2 1
  126   118    52 1
  127   119    52 1
  128   120    52 1
  129   121    51 1
  130   122    50 1
  131   123    50 1
  132   124    49 1
  133   125    49 1
  134   126    48 1
  135   127    48 1
  136   128    43 1
  137   129    43 1
  138   130    43 1
  139   131    39 1
  140   132    32 1
  141   133    31 1
  142   134    61 1
  143   135    56 1
  144   136    24 1
  145   137    24 1
  146   139   138 1
  147   140   139 1
  148   141   140 1
  149   142   140 1
  150   143   142 1
  151   144   138 1
  152   144   143 1
  153   145   144 1
  154   146   145 1
  155   147   146 1
  156   148   147 1
  157   149   148 1
  158   150   149 1
  159   151   150 1
  160   152   151 1
  161   153   152 1
  162   154   138 1
  163   155   138 1
  164   156   143 1
  165   157   147 1
  166   158   151 1
  167   160   159 1
  168   161   160 1
  169   162   161 1
  170   163   161 1
  171   164   163 1
  172   165   159 1
  173   165   164 1
  174   166   165 1
  175   167   166 1
  176   168   167 1
  177   169   168 1
  178   170   169 1
  179   171   170 1
  180   172   171 1
  181   173   172 1
  182   174   153 1
  183   174   173 1
  184   175   159 1
  185   176   159 1
  186   177   164 1
  187   178   168 1
  188   179   172 1
  189   180   179 1
  190   181   179 1
  191   182   179 1
  192   183   178 1
  193   184   178 1
  194   185   178 1
  195   186   177 1
  196   187   177 1
  197   188   177 1
  198   189   176 1
  199   190   176 1
  200   191   176 1
  201   192   175 1
  202   193   175 1
  203   194   175 1
  204   195   160 1
  205   196   160 1
  206   197   158 1
  207   198   158 1
  208   199   158 1
  209   200   157 1
  210   201   157 1
  211   202   157 1
  212   203   156 1
  213   204   156 1
  214   205   156 1
  215   206   155 1
  216   207   155 1
  217   208   155 1
  218   209   154 1
  219   210   154 1
  220   211   154 1
  221   212   141 1
  222   213   146 1
  223   214   145 1
  224   215   142 1
  225   216   142 1
  226   217   174 1
  227   218   173 1
  228   219   171 1
  229   220   170 1
  230   221   169 1
  231   222   140 1
  232   223   167 1
  233   224   166 1
  234   225   165 1
  235   226   163 1
  236   227   161 1
  237   228   139 1
  238   229   139 1
  239   230   153 1
  240   231   152 1
  241   232   150 1
  242   233   149 1
  243   234   148 1
  244   235   162 1
  245   65    153 1
  246   65    174 1
@<TRIPOS>SUBSTRUCTURE
      1 CLA               1 ****               0 ****  **** 
      2 LUT             138 ****               0 ****  **** 
