@<TRIPOS>MOLECULE
Cpptraj generated mol2 file.
  235   246     2     0     0
SMALL
USER_CHARGES


@<TRIPOS>ATOM
      1 CAA        77.5751   58.1390   34.4775 a2         1 CLA     -0.055900
      2 CAB        77.3467   62.1964   43.0801 c8         1 CLA     -0.148500
      3 CAC        70.6692   57.5122   42.7804 a2         1 CLA     -0.012600
      4 CAD        73.2431   55.4094   35.4440 ck         1 CLA      0.398800
      5 NA         76.3021   58.7095   37.6346 ns         1 CLA     -0.225500
      6 CBA        78.9235   58.0041   33.7335 a2         1 CLA     -0.135000
      7 CBB        76.4126   62.7583   43.8248 c0         1 CLA     -0.395200
      8 CBC        71.1044   56.1391   42.6675 a3         1 CLA     -0.037700
      9 CBD        74.6287   56.1082   35.1162 a1         1 CLA     -0.053900
     10 NB         76.1169   60.3411   40.0901 nm         1 CLA     -0.295700
     11 OBD        72.5732   54.5948   34.7813 o2         1 CLA     -0.494600
     12 CGA        79.4085   56.5473   33.4757 c4         1 CLA      0.827000
     13 CGD        75.7175   55.0057   34.8566 c4         1 CLA      0.655300
     14 ND         73.4547   57.7893   38.1656 nm         1 CLA     -0.291600
     15 CED        76.9728   53.2157   35.6637 a3         1 CLA      0.005400
     16 CHA        74.9817   57.0707   36.2934 cs         1 CLA     -0.123800
     17 CHB        78.1284   60.0155   38.6710 aa         1 CLA     -0.291900
     18 CHC        74.7302   60.5784   42.1994 aa         1 CLA     -0.090400
     19 CHD        71.6753   57.5850   39.8104 aa         1 CLA     -0.052000
     20 CMA        79.6970   57.6645   37.5057 a3         1 CLA     -0.230700
     21 CMB        79.5221   62.0054   40.7693 a3         1 CLA     -0.180800
     22 CMC        72.3517   59.8198   44.3094 a3         1 CLA     -0.134000
     23 CMD        70.4322   55.6190   37.6344 a3         1 CLA     -0.141100
     24 C1         80.5876   54.6775   34.3637 a2         1 CLA      0.023000
     25 C1A        76.2254   57.7535   36.6084 ac         1 CLA     -0.015100
     26 C1B        77.4402   60.6552   39.7391 cr         1 CLA      0.054700
     27 C1C        73.5859   59.8469   41.8921 cn         1 CLA     -0.005600
     28 C1D        72.2775   57.2302   38.5250 ap         1 CLA     -0.047300
     29 O1A        79.1238   55.8590   32.5215 o2         1 CLA     -0.610800
     30 O1D        76.4148   55.0101   33.8194 o2         1 CLA     -0.558200
     31 C2         80.9004   54.3703   35.7759 c8         1 CLA     -0.325100
     32 C2A        77.5477   57.6576   35.8925 a1         1 CLA      0.098600
     33 C2B        78.0124   61.5228   40.7445 cb         1 CLA      0.088500
     34 C2C        72.4782   59.4292   42.8537 cb         1 CLA      0.053700
     35 C2D        71.7830   56.2642   37.5342 cb         1 CLA      0.058900
     36 O2A        80.2768   56.1021   34.4822 o1         1 CLA     -0.437200
     37 O2D        75.8493   54.1326   35.9014 o1         1 CLA     -0.357600
     38 C3         81.6865   53.3548   36.1507 c5         1 CLA      0.031200
     39 C3A        78.5189   58.4806   36.8196 a1         1 CLA      0.166800
     40 C3B        77.1132   61.5788   41.7560 cb         1 CLA      0.035000
     41 C3C        71.7137   58.4565   42.1878 cb         1 CLA     -0.089900
     42 C3D        72.8130   56.1533   36.6135 cb         1 CLA     -0.035900
     43 C4         81.1103   52.0050   36.4864 a3         1 CLA     -0.053300
     44 C4A        77.5616   59.1325   37.7660 ac         1 CLA      0.001800
     45 C4B        75.9031   60.7660   41.4017 cn         1 CLA     -0.020900
     46 C4C        72.2590   58.4280   40.8293 cr         1 CLA     -0.044400
     47 C4D        73.8124   57.0472   37.0713 c6         1 CLA     -0.046000
     48 C5         83.1620   53.4497   35.9780 a2         1 CLA     -0.070400
     49 C6         83.9318   54.7430   36.2334 a2         1 CLA      0.043900
     50 C7         83.8665   55.2240   37.7342 a2         1 CLA     -0.150000
     51 C8         84.9532   56.3186   38.1398 a1         1 CLA      0.064200
     52 C9         86.4359   55.8736   37.9093 a3         1 CLA     -0.259300
     53 C10        84.8208   56.9144   39.5586 a2         1 CLA     -0.071900
     54 C11        83.4472   57.1470   40.0794 a2         1 CLA      0.014500
     55 C12        83.4774   58.1946   41.1890 a2         1 CLA     -0.112100
     56 C13        84.2494   57.9213   42.5387 a1         1 CLA      0.089200
     57 C14        83.8496   56.6132   43.3086 a3         1 CLA     -0.239100
     58 C15        84.2074   59.1197   43.5135 a2         1 CLA     -0.102200
     59 C16        82.8670   59.5046   44.0344 a2         1 CLA      0.023900
     60 C17        82.9964   60.5721   45.1474 a2         1 CLA     -0.105700
     61 C18        81.6700   61.2458   45.5145 a1         1 CLA      0.206800
     62 C19        81.8473   62.1349   46.8896 a3         1 CLA     -0.280100
     63 C20        80.8149   62.1136   44.5169 a3         1 CLA     -0.280100
     64 NC         73.3574   59.1919   40.7095 nx         1 CLA     -0.309200
     65 MG         74.7031   59.1599   39.0700 mg         1 CLA      0.895000
     66 HMD3       70.2145   55.0992   36.7135 dc         1 CLA      0.064300
     67 HMD2       70.2414   54.9332   38.5088 dc         1 CLA      0.064300
     68 HMD1       69.6713   56.4231   37.4808 dc         1 CLA      0.064300
     69 HMC3       73.0563   59.2782   44.9286 dc         1 CLA      0.052100
     70 HMC2       72.5767   60.8956   44.2960 dc         1 CLA      0.052100
     71 HMC1       71.4605   59.6278   44.7807 dc         1 CLA      0.052100
     72 HMB3       80.3183   61.2932   40.8446 dc         1 CLA      0.063600
     73 HMB2       79.6275   62.3772   39.7881 dc         1 CLA      0.063600
     74 HMB1       79.7526   62.8092   41.5360 dc         1 CLA      0.063600
     75 HMA3       79.3768   56.9802   38.2861 dc         1 CLA      0.058300
     76 HMA2       80.2992   57.1476   36.7792 dc         1 CLA      0.058300
     77 HMA1       80.3679   58.4340   37.9262 dc         1 CLA      0.058300
     78 HED3       77.9567   53.6316   35.4858 dc         1 CLA      0.079300
     79 HED2       77.1434   52.6254   36.5050 dc         1 CLA      0.079300
     80 HED1       76.7423   52.6576   34.7941 dc         1 CLA      0.079300
     81 HBC3       72.1056   56.0335   43.0892 dc         1 CLA      0.016300
     82 HBC2       70.4311   55.3758   43.1611 dc         1 CLA      0.016300
     83 HBC1       71.2116   55.8481   41.6350 dc         1 CLA      0.016300
     84 HBB2       76.5382   63.2211   44.8032 da         1 CLA      0.183000
     85 HBB1       75.3924   62.8901   43.5553 da         1 CLA      0.183000
     86 HBA2       78.8442   58.4032   32.7176 dc         1 CLA      0.029400
     87 HBA1       79.7001   58.4717   34.3111 dc         1 CLA      0.029400
     88 HAC2       70.5480   57.5902   43.8670 dc         1 CLA      0.029300
     89 HAC1       69.6594   57.6917   42.2461 dc         1 CLA      0.029300
     90 HAA2       76.8713   57.6166   33.8161 dc         1 CLA      0.028700
     91 HAA1       77.2010   59.1595   34.5901 dc         1 CLA      0.028700
     92 H203       80.4728   61.5740   43.6095 dc         1 CLA      0.065600
     93 H202       79.9677   62.5717   45.0541 dc         1 CLA      0.065600
     94 H201       81.4497   62.8839   44.1000 dc         1 CLA      0.065600
     95 H193       82.8859   62.4959   46.7576 dc         1 CLA      0.065600
     96 H192       81.1688   63.0275   46.9857 dc         1 CLA      0.065600
     97 H191       81.6342   61.4698   47.7220 dc         1 CLA      0.065600
     98 H172       83.4463   59.9991   45.9513 dc         1 CLA      0.027600
     99 H171       83.7888   61.2971   44.9221 dc         1 CLA      0.027600
    100 H162       82.2389   59.8900   43.2445 dc         1 CLA      0.002900
    101 H161       82.3348   58.7135   44.5282 dc         1 CLA      0.002900
    102 H152       84.8620   58.8813   44.3249 dc         1 CLA      0.029100
    103 H151       84.5926   60.0734   43.0600 dc         1 CLA      0.029100
    104 H143       84.5653   56.3682   44.1245 dc         1 CLA      0.063600
    105 H142       82.8872   56.6982   43.7884 dc         1 CLA      0.063600
    106 H141       83.8291   55.7692   42.6280 dc         1 CLA      0.063600
    107 H122       83.8726   59.1049   40.8063 dc         1 CLA      0.032500
    108 H121       82.3958   58.2528   41.3542 dc         1 CLA      0.032500
    109 H112       82.9352   57.6632   39.2543 dc         1 CLA      0.006600
    110 H111       82.9357   56.2327   40.3148 dc         1 CLA      0.006600
    111 H102       85.3005   56.2279   40.2735 dc         1 CLA      0.024100
    112 H101       85.3167   57.8433   39.5949 dc         1 CLA      0.024100
    113 HHD        70.7101   57.2154   40.0217 da         1 CLA      0.174300
    114 HHC        74.9376   60.7529   43.2229 da         1 CLA      0.136800
    115 HHB        79.1975   60.2377   38.6329 da         1 CLA      0.138300
    116 HBD        74.5015   56.7890   34.2333 dc         1 CLA      0.107700
    117 HAB        78.3015   62.2873   43.4652 da         1 CLA      0.155200
    118 H93        86.5555   54.9398   38.3953 dc         1 CLA      0.069500
    119 H92        86.6154   55.7332   36.8123 dc         1 CLA      0.069500
    120 H91        87.1336   56.6225   38.2294 dc         1 CLA      0.069500
    121 H8         84.8411   57.0834   37.3820 dc         1 CLA      0.029300
    122 H72        82.8876   55.7011   37.8827 dc         1 CLA      0.044400
    123 H71        84.0259   54.3290   38.3424 dc         1 CLA      0.044400
    124 H62        84.9600   54.5589   35.9700 dc         1 CLA      0.015600
    125 H61        83.3781   55.5142   35.7140 dc         1 CLA      0.015600
    126 H52        83.4360   52.8250   36.8281 dc         1 CLA      0.033200
    127 H51        83.4426   52.9176   35.0745 dc         1 CLA      0.033200
    128 H43        80.1526   51.8630   35.9880 dc         1 CLA      0.037000
    129 H42        81.7289   51.2417   36.0378 dc         1 CLA      0.037000
    130 H41        81.1473   51.8792   37.5845 dc         1 CLA      0.037000
    131 H3A        78.9660   59.2087   36.1234 dc         1 CLA      0.041100
    132 H2A        77.8522   56.5746   35.9973 dc         1 CLA      0.083100
    133 H2         80.5986   54.9719   36.5375 da         1 CLA      0.180900
    134 H18        81.0047   60.4063   45.8312 dc         1 CLA     -0.003900
    135 H13        85.3117   57.8164   42.2879 dc         1 CLA      0.019700
    136 H12        79.7579   54.0802   34.0670 dc         1 CLA      0.120400
    137 H11        81.5019   54.3904   33.7860 dc         1 CLA      0.120400
    138 C1         67.5435   61.2054   50.2370 Z1         2 LUT      0.509236
    139 C2         66.2192   60.9486   50.9551 Z2         2 LUT     -0.434695
    140 C3         65.3120   62.1916   51.1487 Z3         2 LUT      0.437453
    141 O3         65.2838   62.8143   52.4817 S1         2 LUT     -0.547129
    142 C4         65.6212   63.3608   50.1532 Z4         2 LUT     -0.468603
    143 C5         66.2534   63.0323   48.8772 Z5         2 LUT      0.279246
    144 C6         67.1846   62.0111   48.8629 Z6         2 LUT     -0.305473
    145 C7         67.5821   61.3386   47.5543 Z7         2 LUT      0.069402
    146 C8         68.2291   62.0819   46.7024 Z8         2 LUT     -0.191631
    147 C9         68.8508   61.8237   45.3847 Z9         2 LUT      0.196698
    148 C10        69.6328   62.7171   44.7938 Y1         2 LUT     -0.208611
    149 C11        70.2988   62.7788   43.4660 Y2         2 LUT      0.030784
    150 C12        71.1910   63.6748   42.9565 Y3         2 LUT     -0.220316
    151 C13        71.9509   63.4556   41.7225 Y4         2 LUT      0.215937
    152 C14        73.1820   64.1784   41.6591 Y5         2 LUT     -0.185793
    153 C15        74.1607   64.0606   40.6269 Y6         2 LUT     -0.057835
    154 C16        68.3877   59.9507   49.9768 Y7         2 LUT     -0.405615
    155 C17        68.4300   62.0239   51.1722 Y7         2 LUT     -0.405615
    156 C18        65.5710   63.4956   47.6794 Y9         2 LUT     -0.369639
    157 C19        68.5260   60.5038   44.6557 W1         2 LUT     -0.333362
    158 C20        71.5571   62.4604   40.7213 W2         2 LUT     -0.323439
    159 C21        86.4452   65.2670   35.1021 Z1         2 LUT      0.406104
    160 C22        87.1190   64.4985   33.9369 Z2         2 LUT     -0.404965
    161 C23        87.0344   65.2388   32.6122 Z3         2 LUT      0.391255
    162 O23        87.4904   64.3738   31.5720 S1         2 LUT     -0.528210
    163 C24        85.6953   65.9330   32.3928 W6         2 LUT     -0.258361
    164 C25        84.7166   66.0837   33.3632 Z5         2 LUT      0.133546
    165 C26        84.9622   65.4703   34.7929 W8         2 LUT     -0.147008
    166 C27        84.1060   66.0626   35.8658 Z7         2 LUT      0.023843
    167 C28        82.8208   65.6768   36.1869 Z8         2 LUT     -0.216987
    168 C29        81.9986   66.0419   37.3580 Z9         2 LUT      0.206524
    169 C30        80.7055   65.6130   37.4405 Y1         2 LUT     -0.215556
    170 C31        79.7844   65.6979   38.5719 Y2         2 LUT      0.025142
    171 C32        78.6365   64.9531   38.6828 Y3         2 LUT     -0.212209
    172 C33        77.7394   65.0988   39.8682 Y4         2 LUT      0.240937
    173 C34        76.4790   64.4870   39.6712 Y5         2 LUT     -0.218862
    174 C35        75.4047   64.6257   40.6114 Y6         2 LUT     -0.023547
    175 C36        87.2312   66.4017   35.4921 Y7         2 LUT     -0.393485
    176 C37        86.5191   64.2671   36.3291 Y7         2 LUT     -0.393485
    177 C38        83.3360   66.7550   33.0977 Y9         2 LUT     -0.387526
    178 C39        82.6415   66.9070   38.4640 W1         2 LUT     -0.322618
    179 C40        78.2795   65.3724   41.2348 W2         2 LUT     -0.358472
    180 H403       78.2804   66.4211   41.3850 R7         2 LUT      0.097720
    181 H402       77.6626   65.1270   42.0291 R7         2 LUT      0.097720
    182 H401       79.3233   64.9765   41.3306 R7         2 LUT      0.097720
    183 H393       82.8113   67.9727   38.2450 R4         2 LUT      0.082505
    184 H392       82.1871   66.9677   39.4620 R4         2 LUT      0.082505
    185 H391       83.6693   66.4487   38.5498 R4         2 LUT      0.082505
    186 H383       83.2364   67.1998   32.1186 R1         2 LUT      0.104030
    187 H382       82.5447   65.9881   33.0970 R1         2 LUT      0.104030
    188 H381       83.1719   67.5552   33.8326 R1         2 LUT      0.104030
    189 H373       87.5381   64.1843   36.7091 T4         2 LUT      0.089537
    190 H372       85.9980   64.6888   37.2043 T4         2 LUT      0.089537
    191 H371       86.2066   63.2088   36.1579 T4         2 LUT      0.089537
    192 H363       88.3086   66.2082   35.6453 T4         2 LUT      0.089537
    193 H362       87.0853   67.1408   34.7753 T4         2 LUT      0.089537
    194 H361       86.8585   66.8895   36.3991 T4         2 LUT      0.089537
    195 H222       88.1643   64.3232   34.1868 U2         2 LUT      0.127376
    196 H221       86.7777   63.4752   33.8067 U2         2 LUT      0.127376
    197 H203       71.9098   61.4813   40.8437 R7         2 LUT      0.087068
    198 H202       70.4688   62.3647   40.5988 R7         2 LUT      0.087068
    199 H201       71.9837   62.7410   39.8009 R7         2 LUT      0.087068
    200 H193       67.6580   60.6254   44.0207 R4         2 LUT      0.089716
    201 H192       69.3073   60.0943   44.0515 R4         2 LUT      0.089716
    202 H191       68.3484   59.7583   45.4678 R4         2 LUT      0.089716
    203 H183       65.9670   64.4635   47.3867 R1         2 LUT      0.094572
    204 H182       65.6046   62.8634   46.8644 R1         2 LUT      0.094572
    205 H181       64.5257   63.7345   47.9759 R1         2 LUT      0.094572
    206 H173       67.7432   62.6044   51.8841 T4         2 LUT      0.093752
    207 H172       69.0509   61.3468   51.7316 T4         2 LUT      0.093752
    208 H171       69.1491   62.7707   50.7369 T4         2 LUT      0.093752
    209 H163       68.7260   59.4307   50.8698 T4         2 LUT      0.093752
    210 H162       67.7805   59.2645   49.3808 T4         2 LUT      0.093752
    211 H161       69.1960   60.1697   49.3485 T4         2 LUT      0.093752
    212 HO3        65.0619   62.1430   53.1373 Q1         2 LUT      0.300121
    213 H8         68.2928   63.0806   47.0047 U7         2 LUT      0.080784
    214 H7         67.6037   60.2402   47.4503 U6         2 LUT      0.042190
    215 H42        64.6863   63.8804   50.0300 U5         2 LUT      0.145166
    216 H41        66.3874   63.9751   50.5359 U5         2 LUT      0.145166
    217 H35        75.5927   65.3032   41.3991 T3         2 LUT      0.077919
    218 H34        76.2997   63.8733   38.8027 T2         2 LUT      0.073626
    219 H32        78.3720   64.2238   37.9169 T1         2 LUT      0.092510
    220 H31        79.9404   66.4832   39.2975 U9         2 LUT      0.070048
    221 H30        80.2926   65.2796   36.4941 U8         2 LUT      0.085442
    222 H3         64.2804   61.8899   50.9035 U3         2 LUT     -0.031596
    223 H28        82.2722   64.9203   35.6013 U7         2 LUT      0.084728
    224 H27        84.6361   66.8797   36.4394 U6         2 LUT      0.087291
    225 H26        84.6911   64.3823   34.5997 Q6         2 LUT      0.075325
    226 H24        85.4524   66.3487   31.4332 Q5         2 LUT      0.094482
    227 H23        87.6805   66.1166   32.7767 U3         2 LUT     -0.024869
    228 H22        65.6754   60.2675   50.3274 U2         2 LUT      0.127376
    229 H21        66.4175   60.5080   51.9366 U2         2 LUT      0.127376
    230 H15        74.0418   63.3043   39.9313 T3         2 LUT      0.093200
    231 H14        73.5719   64.8634   42.3934 T2         2 LUT      0.068865
    232 H12        71.6231   64.4141   43.5673 T1         2 LUT      0.095507
    233 H11        69.9874   62.0025   42.8200 U9         2 LUT      0.068930
    234 H10        69.7833   63.6039   45.4312 U8         2 LUT      0.083911
    235 H1         87.8029   64.9403   30.8464 Q1         2 LUT      0.297311
@<TRIPOS>BOND
    1     6     1 1
    2     7     2 1
    3     8     3 1
    4     9     4 1
    5    11     4 1
    6    12     6 1
    7    13     9 1
    8    16     9 1
    9    25     5 1
   10    25    16 1
   11    26    10 1
   12    26    17 1
   13    27    18 1
   14    28    14 1
   15    28    19 1
   16    29    12 1
   17    30    13 1
   18    31    24 1
   19    32     1 1
   20    32    25 1
   21    33    21 1
   22    33    26 1
   23    34    22 1
   24    34    27 1
   25    35    23 1
   26    35    28 1
   27    36    12 1
   28    36    24 1
   29    37    13 1
   30    37    15 1
   31    38    31 1
   32    39    20 1
   33    39    32 1
   34    40     2 1
   35    40    33 1
   36    41     3 1
   37    41    34 1
   38    42     4 1
   39    42    35 1
   40    43    38 1
   41    44     5 1
   42    44    17 1
   43    44    39 1
   44    45    10 1
   45    45    18 1
   46    45    40 1
   47    46    19 1
   48    46    41 1
   49    47    14 1
   50    47    16 1
   51    47    42 1
   52    48    38 1
   53    49    48 1
   54    50    49 1
   55    51    50 1
   56    52    51 1
   57    53    51 1
   58    54    53 1
   59    55    54 1
   60    56    55 1
   61    57    56 1
   62    58    56 1
   63    59    58 1
   64    60    59 1
   65    61    60 1
   66    62    61 1
   67    63    61 1
   68    64    27 1
   69    64    46 1
   70    65     5 1
   71    65    10 1
   72    65    64 1
   73    65    14 1
   74    66    23 1
   75    67    23 1
   76    68    23 1
   77    69    22 1
   78    70    22 1
   79    71    22 1
   80    72    21 1
   81    73    21 1
   82    74    21 1
   83    75    20 1
   84    76    20 1
   85    77    20 1
   86    78    15 1
   87    79    15 1
   88    80    15 1
   89    81     8 1
   90    82     8 1
   91    83     8 1
   92    84     7 1
   93    85     7 1
   94    86     6 1
   95    87     6 1
   96    88     3 1
   97    89     3 1
   98    90     1 1
   99    91     1 1
  100    92    63 1
  101    93    63 1
  102    94    63 1
  103    95    62 1
  104    96    62 1
  105    97    62 1
  106    98    60 1
  107    99    60 1
  108   100    59 1
  109   101    59 1
  110   102    58 1
  111   103    58 1
  112   104    57 1
  113   105    57 1
  114   106    57 1
  115   107    55 1
  116   108    55 1
  117   109    54 1
  118   110    54 1
  119   111    53 1
  120   112    53 1
  121   113    19 1
  122   114    18 1
  123   115    17 1
  124   116     9 1
  125   117     2 1
  126   118    52 1
  127   119    52 1
  128   120    52 1
  129   121    51 1
  130   122    50 1
  131   123    50 1
  132   124    49 1
  133   125    49 1
  134   126    48 1
  135   127    48 1
  136   128    43 1
  137   129    43 1
  138   130    43 1
  139   131    39 1
  140   132    32 1
  141   133    31 1
  142   134    61 1
  143   135    56 1
  144   136    24 1
  145   137    24 1
  146   139   138 1
  147   140   139 1
  148   141   140 1
  149   142   140 1
  150   143   142 1
  151   144   138 1
  152   144   143 1
  153   145   144 1
  154   146   145 1
  155   147   146 1
  156   148   147 1
  157   149   148 1
  158   150   149 1
  159   151   150 1
  160   152   151 1
  161   153   152 1
  162   154   138 1
  163   155   138 1
  164   156   143 1
  165   157   147 1
  166   158   151 1
  167   160   159 1
  168   161   160 1
  169   162   161 1
  170   163   161 1
  171   164   163 1
  172   165   159 1
  173   165   164 1
  174   166   165 1
  175   167   166 1
  176   168   167 1
  177   169   168 1
  178   170   169 1
  179   171   170 1
  180   172   171 1
  181   173   172 1
  182   174   153 1
  183   174   173 1
  184   175   159 1
  185   176   159 1
  186   177   164 1
  187   178   168 1
  188   179   172 1
  189   180   179 1
  190   181   179 1
  191   182   179 1
  192   183   178 1
  193   184   178 1
  194   185   178 1
  195   186   177 1
  196   187   177 1
  197   188   177 1
  198   189   176 1
  199   190   176 1
  200   191   176 1
  201   192   175 1
  202   193   175 1
  203   194   175 1
  204   195   160 1
  205   196   160 1
  206   197   158 1
  207   198   158 1
  208   199   158 1
  209   200   157 1
  210   201   157 1
  211   202   157 1
  212   203   156 1
  213   204   156 1
  214   205   156 1
  215   206   155 1
  216   207   155 1
  217   208   155 1
  218   209   154 1
  219   210   154 1
  220   211   154 1
  221   212   141 1
  222   213   146 1
  223   214   145 1
  224   215   142 1
  225   216   142 1
  226   217   174 1
  227   218   173 1
  228   219   171 1
  229   220   170 1
  230   221   169 1
  231   222   140 1
  232   223   167 1
  233   224   166 1
  234   225   165 1
  235   226   163 1
  236   227   161 1
  237   228   139 1
  238   229   139 1
  239   230   153 1
  240   231   152 1
  241   232   150 1
  242   233   149 1
  243   234   148 1
  244   235   162 1
  245   65    153 1
  246   65    174 1
@<TRIPOS>SUBSTRUCTURE
      1 CLA               1 ****               0 ****  **** 
      2 LUT             138 ****               0 ****  **** 
