@<TRIPOS>MOLECULE
Cpptraj generated mol2 file.
  235   246     2     0     0
SMALL
USER_CHARGES


@<TRIPOS>ATOM
      1 CAA        78.2435   58.6877   34.6704 a2         1 CLA     -0.055900
      2 CAB        78.1131   62.6965   43.5636 c8         1 CLA     -0.148500
      3 CAC        71.1779   58.4748   43.0029 a2         1 CLA     -0.012600
      4 CAD        74.1124   55.8793   36.0420 ck         1 CLA      0.398800
      5 NA         77.0521   59.1008   38.0350 ns         1 CLA     -0.225500
      6 CBA        79.6010   58.5167   33.9230 a2         1 CLA     -0.135000
      7 CBB        79.3006   62.8574   44.1949 c0         1 CLA     -0.395200
      8 CBC        71.2608   56.9390   43.2987 a3         1 CLA     -0.037700
      9 CBD        75.6515   56.3661   35.8170 a1         1 CLA     -0.053900
     10 NB         76.9390   60.7453   40.6042 nm         1 CLA     -0.295700
     11 OBD        73.5476   55.0482   35.3476 o2         1 CLA     -0.494600
     12 CGA        79.8880   57.0371   33.5982 c4         1 CLA      0.827000
     13 CGD        76.5843   55.1968   35.8905 c4         1 CLA      0.655300
     14 ND         74.3504   58.1630   38.6768 nm         1 CLA     -0.291600
     15 CED        76.8826   53.0239   36.8712 a3         1 CLA      0.005400
     16 CHA        75.8904   57.3713   36.8543 cs         1 CLA     -0.123800
     17 CHB        78.8667   60.3883   39.1464 aa         1 CLA     -0.291900
     18 CHC        75.6048   60.9869   42.6294 aa         1 CLA     -0.090400
     19 CHD        72.5000   58.1643   40.2014 aa         1 CLA     -0.052000
     20 CMA        80.4139   58.0787   37.5886 a3         1 CLA     -0.230700
     21 CMB        80.2786   62.4228   41.0554 a3         1 CLA     -0.180800
     22 CMC        73.3259   60.2380   44.7152 a3         1 CLA     -0.134000
     23 CMD        71.2997   56.2200   37.8612 a3         1 CLA     -0.141100
     24 C1         80.9492   55.0135   34.2496 a2         1 CLA      0.023000
     25 C1A        76.9611   58.2323   37.0311 ac         1 CLA     -0.015100
     26 C1B        78.2619   60.9877   40.2653 cr         1 CLA      0.054700
     27 C1C        74.4426   60.2450   42.3363 cn         1 CLA     -0.005600
     28 C1D        73.1173   57.6767   39.0457 ap         1 CLA     -0.047300
     29 O1A        79.4320   56.4497   32.5962 o2         1 CLA     -0.610800
     30 O1D        77.6050   55.1010   35.2612 o2         1 CLA     -0.558200
     31 C2         80.9423   54.1693   35.4877 c8         1 CLA     -0.325100
     32 C2A        78.2763   58.1798   36.1790 a1         1 CLA      0.098600
     33 C2B        78.8651   61.9178   41.1905 cb         1 CLA      0.088500
     34 C2C        73.3436   59.8733   43.2392 cb         1 CLA      0.053700
     35 C2D        72.6192   56.7798   38.0023 cb         1 CLA      0.058900
     36 O2A        80.6610   56.3762   34.5279 o1         1 CLA     -0.437200
     37 O2D        76.2865   54.3149   36.9341 o1         1 CLA     -0.357600
     38 C3         81.9806   53.7258   36.2732 c5         1 CLA      0.031200
     39 C3A        79.2610   58.9196   37.0693 a1         1 CLA      0.166800
     40 C3B        77.9533   62.0194   42.2729 cb         1 CLA      0.035000
     41 C3C        72.4218   59.1492   42.5030 cb         1 CLA     -0.089900
     42 C3D        73.6976   56.6038   37.1936 cb         1 CLA     -0.035900
     43 C4         82.9044   52.6215   35.8485 a3         1 CLA     -0.053300
     44 C4A        78.3690   59.5698   38.1360 ac         1 CLA      0.001800
     45 C4B        76.7414   61.2330   41.8813 cn         1 CLA     -0.020900
     46 C4C        72.9830   59.0261   41.2033 cr         1 CLA     -0.044400
     47 C4D        74.7563   57.4862   37.6029 c6         1 CLA     -0.046000
     48 C5         82.4281   54.5988   37.4826 a2         1 CLA     -0.070400
     49 C6         83.5157   55.6516   37.3337 a2         1 CLA      0.043900
     50 C7         83.7694   56.3490   38.6743 a2         1 CLA     -0.150000
     51 C8         84.5954   57.6465   38.6142 a1         1 CLA      0.064200
     52 C9         86.0565   57.4523   38.2408 a3         1 CLA     -0.259300
     53 C10        84.5925   58.4078   39.9727 a2         1 CLA     -0.071900
     54 C11        83.2933   58.5910   40.8054 a2         1 CLA      0.014500
     55 C12        83.5681   59.3354   42.1551 a2         1 CLA     -0.112100
     56 C13        84.6355   58.7751   43.0773 a1         1 CLA      0.089200
     57 C14        84.1933   57.3879   43.7496 a3         1 CLA     -0.239100
     58 C15        84.9137   59.8893   44.1462 a2         1 CLA     -0.102200
     59 C16        83.7076   60.4850   44.8586 a2         1 CLA      0.023900
     60 C17        84.0851   61.5676   45.8863 a2         1 CLA     -0.105700
     61 C18        83.0771   62.6952   46.0935 a1         1 CLA      0.206800
     62 C19        81.7400   62.0957   46.6484 a3         1 CLA     -0.280100
     63 C20        83.5822   63.9008   47.0130 a3         1 CLA     -0.280100
     64 NC         74.2155   59.6798   41.1467 nx         1 CLA     -0.309200
     65 MG         75.5384   59.5197   39.5939 mg         1 CLA      0.895000
     66 HMD3       71.3826   55.4226   37.0850 dc         1 CLA      0.064300
     67 HMD2       70.9795   55.7768   38.7572 dc         1 CLA      0.064300
     68 HMD1       70.5525   56.9400   37.5077 dc         1 CLA      0.064300
     69 HMC3       74.0266   59.7251   45.3881 dc         1 CLA      0.052100
     70 HMC2       73.5846   61.2676   44.7889 dc         1 CLA      0.052100
     71 HMC1       72.3750   59.9271   45.0847 dc         1 CLA      0.052100
     72 HMB3       80.6102   62.4336   40.0052 dc         1 CLA      0.063600
     73 HMB2       80.0721   63.5042   41.4068 dc         1 CLA      0.063600
     74 HMB1       81.0400   61.9994   41.7573 dc         1 CLA      0.063600
     75 HMA3       81.1870   58.7519   38.0660 dc         1 CLA      0.058300
     76 HMA2       80.0554   57.2949   38.2481 dc         1 CLA      0.058300
     77 HMA1       80.9574   57.6474   36.7271 dc         1 CLA      0.058300
     78 HED3       76.6868   52.5493   35.9542 dc         1 CLA      0.079300
     79 HED2       77.9342   52.9406   37.1326 dc         1 CLA      0.079300
     80 HED1       76.2991   52.4386   37.5484 dc         1 CLA      0.079300
     81 HBC3       71.5247   56.2986   42.4581 dc         1 CLA      0.016300
     82 HBC2       71.9987   56.8132   44.0611 dc         1 CLA      0.016300
     83 HBC1       70.2828   56.6301   43.6170 dc         1 CLA      0.016300
     84 HBB2       79.3704   63.3326   45.1983 da         1 CLA      0.183000
     85 HBB1       80.2177   62.3288   43.7985 da         1 CLA      0.183000
     86 HBA2       79.4243   59.1439   33.0477 dc         1 CLA      0.029400
     87 HBA1       80.5089   58.8938   34.3846 dc         1 CLA      0.029400
     88 HAC2       70.8874   59.1011   43.8051 dc         1 CLA      0.029300
     89 HAC1       70.3523   58.6805   42.2599 dc         1 CLA      0.029300
     90 HAA2       77.5326   57.9974   34.2826 dc         1 CLA      0.028700
     91 HAA1       77.7876   59.6889   34.6991 dc         1 CLA      0.028700
     92 H203       84.1613   63.4933   47.8063 dc         1 CLA      0.065600
     93 H202       84.1997   64.5945   46.4056 dc         1 CLA      0.065600
     94 H201       82.6306   64.3458   47.3674 dc         1 CLA      0.065600
     95 H193       81.8424   61.5108   47.5259 dc         1 CLA      0.065600
     96 H192       81.0906   62.9545   46.8116 dc         1 CLA      0.065600
     97 H191       81.3811   61.5536   45.7770 dc         1 CLA      0.065600
     98 H172       84.5009   61.2158   46.8272 dc         1 CLA      0.027600
     99 H171       84.9744   62.0556   45.3792 dc         1 CLA      0.027600
    100 H162       83.0630   60.9559   44.1901 dc         1 CLA      0.002900
    101 H161       83.0249   59.7310   45.3808 dc         1 CLA      0.002900
    102 H152       85.5705   59.3988   44.9255 dc         1 CLA      0.029100
    103 H151       85.3775   60.6979   43.5887 dc         1 CLA      0.029100
    104 H143       83.4648   57.6249   44.5187 dc         1 CLA      0.063600
    105 H142       83.6728   56.7880   43.0068 dc         1 CLA      0.063600
    106 H141       85.1551   56.9879   44.1191 dc         1 CLA      0.063600
    107 H122       83.7784   60.3198   41.7301 dc         1 CLA      0.032500
    108 H121       82.6050   59.3829   42.6513 dc         1 CLA      0.032500
    109 H112       82.6307   59.2762   40.2898 dc         1 CLA      0.006600
    110 H111       82.8227   57.6605   40.9880 dc         1 CLA      0.006600
    111 H102       85.3418   57.9594   40.5910 dc         1 CLA      0.024100
    112 H101       84.9656   59.3716   39.8094 dc         1 CLA      0.024100
    113 HHD        71.5897   57.6229   40.2661 da         1 CLA      0.174300
    114 HHC        75.5884   61.4333   43.6320 da         1 CLA      0.136800
    115 HHB        79.9090   60.4906   39.0410 da         1 CLA      0.138300
    116 HBD        75.6431   56.7180   34.7779 dc         1 CLA      0.107700
    117 HAB        77.2957   63.1656   44.0685 da         1 CLA      0.155200
    118 H93        86.7115   58.3057   38.4166 dc         1 CLA      0.069500
    119 H92        86.5515   56.7077   38.8374 dc         1 CLA      0.069500
    120 H91        86.1013   57.3385   37.1521 dc         1 CLA      0.069500
    121 H8         84.2977   58.3264   37.8369 dc         1 CLA      0.029300
    122 H72        82.7910   56.7128   39.0408 dc         1 CLA      0.044400
    123 H71        84.2110   55.5692   39.2685 dc         1 CLA      0.044400
    124 H62        84.4440   55.1670   37.0101 dc         1 CLA      0.015600
    125 H61        83.1274   56.4408   36.6646 dc         1 CLA      0.015600
    126 H52        81.5528   55.1076   37.9580 dc         1 CLA      0.033200
    127 H51        82.7005   53.9825   38.2393 dc         1 CLA      0.033200
    128 H43        82.9749   51.8789   36.6102 dc         1 CLA      0.037000
    129 H42        82.4300   52.2453   34.9565 dc         1 CLA      0.037000
    130 H41        83.8862   53.0065   35.6619 dc         1 CLA      0.037000
    131 H3A        79.7157   59.7294   36.4611 dc         1 CLA      0.041100
    132 H2A        78.5355   57.1526   36.1141 dc         1 CLA      0.083100
    133 H2         79.9442   53.8148   35.8132 da         1 CLA      0.180900
    134 H18        82.8303   63.0820   45.1023 dc         1 CLA     -0.003900
    135 H13        85.5261   58.6263   42.4082 dc         1 CLA      0.019700
    136 H12        80.1942   54.5837   33.6215 dc         1 CLA      0.120400
    137 H11        81.9069   54.7572   33.8310 dc         1 CLA      0.120400
    138 C1         67.0950   62.2779   50.4386 Z1         2 LUT      0.509236
    139 C2         67.1611   63.6034   51.2997 Z2         2 LUT     -0.434695
    140 C3         65.8587   64.4121   51.3189 Z3         2 LUT      0.437453
    141 O3         66.2785   65.7099   51.6636 S1         2 LUT     -0.547129
    142 C4         65.1233   64.3206   49.9553 Z4         2 LUT     -0.468603
    143 C5         65.9057   63.7615   48.8543 Z5         2 LUT      0.279246
    144 C6         66.8191   62.7072   48.9995 Z6         2 LUT     -0.305473
    145 C7         67.7082   62.1035   47.9299 Z7         2 LUT      0.069402
    146 C8         68.5398   62.8089   47.0939 Z8         2 LUT     -0.191631
    147 C9         69.1786   62.4219   45.8086 Z9         2 LUT      0.196698
    148 C10        70.0151   63.2284   45.1173 Y1         2 LUT     -0.208611
    149 C11        70.8426   63.0809   43.9506 Y2         2 LUT      0.030784
    150 C12        71.8014   63.9857   43.4974 Y3         2 LUT     -0.220316
    151 C13        72.7645   63.7392   42.4328 Y4         2 LUT      0.215937
    152 C14        73.8838   64.5151   42.4538 Y5         2 LUT     -0.185793
    153 C15        74.9801   64.5190   41.5944 Y6         2 LUT     -0.057835
    154 C16        66.0556   61.3566   51.0348 Y7         2 LUT     -0.405615
    155 C17        68.4525   61.5957   50.6902 Y7         2 LUT     -0.405615
    156 C18        65.6641   64.5535   47.4885 Y9         2 LUT     -0.369639
    157 C19        68.8526   61.0487   45.2286 W1         2 LUT     -0.333362
    158 C20        72.4719   62.8012   41.2746 W2         2 LUT     -0.323439
    159 C21        86.8132   66.1468   36.2676 Z1         2 LUT      0.406104
    160 C22        87.5974   65.6822   34.9921 Z2         2 LUT     -0.404965
    161 C23        87.5924   66.5916   33.7593 Z3         2 LUT      0.391255
    162 O23        88.0587   65.6911   32.7274 S1         2 LUT     -0.528210
    163 C24        86.2074   67.1853   33.6303 W6         2 LUT     -0.258361
    164 C25        85.1285   67.0721   34.3932 Z5         2 LUT      0.133546
    165 C26        85.2695   66.3785   35.7475 W8         2 LUT     -0.147008
    166 C27        84.4729   67.0489   36.8480 Z7         2 LUT      0.023843
    167 C28        83.3705   66.4767   37.4835 Z8         2 LUT     -0.216987
    168 C29        82.5332   67.0017   38.5145 Z9         2 LUT      0.206524
    169 C30        81.4674   66.3061   38.9408 Y1         2 LUT     -0.215556
    170 C31        80.5202   66.5484   39.9592 Y2         2 LUT      0.025142
    171 C32        79.3754   65.8352   40.0807 Y3         2 LUT     -0.212209
    172 C33        78.3853   66.0886   41.1177 Y4         2 LUT      0.240937
    173 C34        77.3162   65.2833   41.1167 Y5         2 LUT     -0.218862
    174 C35        76.1271   65.3405   41.8250 Y6         2 LUT     -0.023547
    175 C36        87.4913   67.3666   36.9206 Y7         2 LUT     -0.393485
    176 C37        87.1038   65.0613   37.3350 Y7         2 LUT     -0.393485
    177 C38        83.8658   67.6861   33.7750 Y9         2 LUT     -0.387526
    178 C39        83.1049   68.2368   39.2157 W1         2 LUT     -0.322618
    179 C40        78.8897   66.5814   42.4976 W2         2 LUT     -0.358472
    180 H403       79.7489   66.0681   42.8893 R7         2 LUT      0.097720
    181 H402       79.2166   67.5871   42.3541 R7         2 LUT      0.097720
    182 H401       78.0827   66.6358   43.1986 R7         2 LUT      0.097720
    183 H393       82.4607   68.6912   40.0290 R4         2 LUT      0.082505
    184 H392       84.1048   68.0641   39.5421 R4         2 LUT      0.082505
    185 H391       83.1268   69.0626   38.4746 R4         2 LUT      0.082505
    186 H383       83.5403   67.1841   32.8413 R1         2 LUT      0.104030
    187 H382       83.0250   67.6573   34.4698 R1         2 LUT      0.104030
    188 H381       83.8627   68.7714   33.5755 R1         2 LUT      0.104030
    189 H373       88.1314   64.9419   37.5682 T4         2 LUT      0.089537
    190 H372       86.6552   65.3795   38.2999 T4         2 LUT      0.089537
    191 H371       86.6989   64.0099   37.0258 T4         2 LUT      0.089537
    192 H363       87.4629   68.2315   36.2435 T4         2 LUT      0.089537
    193 H362       86.9847   67.7339   37.7879 T4         2 LUT      0.089537
    194 H361       88.5367   67.2283   37.1873 T4         2 LUT      0.089537
    195 H222       88.6403   65.6022   35.2880 U2         2 LUT      0.127376
    196 H221       87.1092   64.8088   34.7118 U2         2 LUT      0.127376
    197 H203       71.6556   63.1757   40.6479 R7         2 LUT      0.087068
    198 H202       73.3386   62.6431   40.6020 R7         2 LUT      0.087068
    199 H201       72.2860   61.7768   41.5878 R7         2 LUT      0.087068
    200 H193       67.8940   60.6712   45.4642 R4         2 LUT      0.089716
    201 H192       68.8529   61.0044   44.1708 R4         2 LUT      0.089716
    202 H191       69.6187   60.4159   45.6122 R4         2 LUT      0.089716
    203 H183       64.7072   64.9098   47.3644 R1         2 LUT      0.094572
    204 H182       66.2342   65.5021   47.6275 R1         2 LUT      0.094572
    205 H181       65.9380   63.9136   46.6154 R1         2 LUT      0.094572
    206 H173       68.7006   61.5684   51.7486 T4         2 LUT      0.093752
    207 H172       68.4627   60.5483   50.2450 T4         2 LUT      0.093752
    208 H171       69.2245   62.1802   50.3390 T4         2 LUT      0.093752
    209 H163       66.1594   60.4021   50.5154 T4         2 LUT      0.093752
    210 H162       66.1641   61.2636   52.1018 T4         2 LUT      0.093752
    211 H161       65.1195   61.7745   50.7842 T4         2 LUT      0.093752
    212 HO3        65.5463   66.2629   51.9398 Q1         2 LUT      0.300121
    213 H8         68.7748   63.8371   47.3961 U7         2 LUT      0.080784
    214 H7         67.4951   61.0470   47.7236 U6         2 LUT      0.042190
    215 H42        64.1767   63.7930   49.9038 U5         2 LUT      0.145166
    216 H41        64.8561   65.3307   49.6930 U5         2 LUT      0.145166
    217 H35        76.0150   66.0893   42.6279 T3         2 LUT      0.077919
    218 H34        77.3230   64.5565   40.3126 T2         2 LUT      0.073626
    219 H32        79.1403   65.1378   39.2698 T1         2 LUT      0.092510
    220 H31        80.5996   67.3929   40.6501 U9         2 LUT      0.070048
    221 H30        81.2484   65.3614   38.3835 U8         2 LUT      0.085442
    222 H3         65.1704   63.9638   52.0501 U3         2 LUT     -0.031596
    223 H28        82.8843   65.6077   37.0570 U7         2 LUT      0.084728
    224 H27        84.8193   68.0487   37.1706 U6         2 LUT      0.087291
    225 H26        84.7526   65.4426   35.6700 Q6         2 LUT      0.075325
    226 H24        86.0038   67.6394   32.6184 Q5         2 LUT      0.094482
    227 H23        88.3230   67.4037   33.9688 U3         2 LUT     -0.024869
    228 H22        67.4055   63.2514   52.3654 U2         2 LUT      0.127376
    229 H21        68.0286   64.1022   50.8505 U2         2 LUT      0.127376
    230 H15        75.0756   63.7467   40.7847 T3         2 LUT      0.093200
    231 H14        73.9324   65.0971   43.3978 T2         2 LUT      0.068865
    232 H12        71.9266   64.8607   44.1500 T1         2 LUT      0.095507
    233 H11        70.6897   62.2446   43.2839 U9         2 LUT      0.068930
    234 H10        70.1347   64.1500   45.6492 U8         2 LUT      0.083911
    235 H1         87.4043   65.3509   32.1348 Q1         2 LUT      0.297311
@<TRIPOS>BOND
    1     6     1 1
    2     7     2 1
    3     8     3 1
    4     9     4 1
    5    11     4 1
    6    12     6 1
    7    13     9 1
    8    16     9 1
    9    25     5 1
   10    25    16 1
   11    26    10 1
   12    26    17 1
   13    27    18 1
   14    28    14 1
   15    28    19 1
   16    29    12 1
   17    30    13 1
   18    31    24 1
   19    32     1 1
   20    32    25 1
   21    33    21 1
   22    33    26 1
   23    34    22 1
   24    34    27 1
   25    35    23 1
   26    35    28 1
   27    36    12 1
   28    36    24 1
   29    37    13 1
   30    37    15 1
   31    38    31 1
   32    39    20 1
   33    39    32 1
   34    40     2 1
   35    40    33 1
   36    41     3 1
   37    41    34 1
   38    42     4 1
   39    42    35 1
   40    43    38 1
   41    44     5 1
   42    44    17 1
   43    44    39 1
   44    45    10 1
   45    45    18 1
   46    45    40 1
   47    46    19 1
   48    46    41 1
   49    47    14 1
   50    47    16 1
   51    47    42 1
   52    48    38 1
   53    49    48 1
   54    50    49 1
   55    51    50 1
   56    52    51 1
   57    53    51 1
   58    54    53 1
   59    55    54 1
   60    56    55 1
   61    57    56 1
   62    58    56 1
   63    59    58 1
   64    60    59 1
   65    61    60 1
   66    62    61 1
   67    63    61 1
   68    64    27 1
   69    64    46 1
   70    65     5 1
   71    65    10 1
   72    65    64 1
   73    65    14 1
   74    66    23 1
   75    67    23 1
   76    68    23 1
   77    69    22 1
   78    70    22 1
   79    71    22 1
   80    72    21 1
   81    73    21 1
   82    74    21 1
   83    75    20 1
   84    76    20 1
   85    77    20 1
   86    78    15 1
   87    79    15 1
   88    80    15 1
   89    81     8 1
   90    82     8 1
   91    83     8 1
   92    84     7 1
   93    85     7 1
   94    86     6 1
   95    87     6 1
   96    88     3 1
   97    89     3 1
   98    90     1 1
   99    91     1 1
  100    92    63 1
  101    93    63 1
  102    94    63 1
  103    95    62 1
  104    96    62 1
  105    97    62 1
  106    98    60 1
  107    99    60 1
  108   100    59 1
  109   101    59 1
  110   102    58 1
  111   103    58 1
  112   104    57 1
  113   105    57 1
  114   106    57 1
  115   107    55 1
  116   108    55 1
  117   109    54 1
  118   110    54 1
  119   111    53 1
  120   112    53 1
  121   113    19 1
  122   114    18 1
  123   115    17 1
  124   116     9 1
  125   117     2 1
  126   118    52 1
  127   119    52 1
  128   120    52 1
  129   121    51 1
  130   122    50 1
  131   123    50 1
  132   124    49 1
  133   125    49 1
  134   126    48 1
  135   127    48 1
  136   128    43 1
  137   129    43 1
  138   130    43 1
  139   131    39 1
  140   132    32 1
  141   133    31 1
  142   134    61 1
  143   135    56 1
  144   136    24 1
  145   137    24 1
  146   139   138 1
  147   140   139 1
  148   141   140 1
  149   142   140 1
  150   143   142 1
  151   144   138 1
  152   144   143 1
  153   145   144 1
  154   146   145 1
  155   147   146 1
  156   148   147 1
  157   149   148 1
  158   150   149 1
  159   151   150 1
  160   152   151 1
  161   153   152 1
  162   154   138 1
  163   155   138 1
  164   156   143 1
  165   157   147 1
  166   158   151 1
  167   160   159 1
  168   161   160 1
  169   162   161 1
  170   163   161 1
  171   164   163 1
  172   165   159 1
  173   165   164 1
  174   166   165 1
  175   167   166 1
  176   168   167 1
  177   169   168 1
  178   170   169 1
  179   171   170 1
  180   172   171 1
  181   173   172 1
  182   174   153 1
  183   174   173 1
  184   175   159 1
  185   176   159 1
  186   177   164 1
  187   178   168 1
  188   179   172 1
  189   180   179 1
  190   181   179 1
  191   182   179 1
  192   183   178 1
  193   184   178 1
  194   185   178 1
  195   186   177 1
  196   187   177 1
  197   188   177 1
  198   189   176 1
  199   190   176 1
  200   191   176 1
  201   192   175 1
  202   193   175 1
  203   194   175 1
  204   195   160 1
  205   196   160 1
  206   197   158 1
  207   198   158 1
  208   199   158 1
  209   200   157 1
  210   201   157 1
  211   202   157 1
  212   203   156 1
  213   204   156 1
  214   205   156 1
  215   206   155 1
  216   207   155 1
  217   208   155 1
  218   209   154 1
  219   210   154 1
  220   211   154 1
  221   212   141 1
  222   213   146 1
  223   214   145 1
  224   215   142 1
  225   216   142 1
  226   217   174 1
  227   218   173 1
  228   219   171 1
  229   220   170 1
  230   221   169 1
  231   222   140 1
  232   223   167 1
  233   224   166 1
  234   225   165 1
  235   226   163 1
  236   227   161 1
  237   228   139 1
  238   229   139 1
  239   230   153 1
  240   231   152 1
  241   232   150 1
  242   233   149 1
  243   234   148 1
  244   235   162 1
  245   65    153 1
  246   65    174 1
@<TRIPOS>SUBSTRUCTURE
      1 CLA               1 ****               0 ****  **** 
      2 LUT             138 ****               0 ****  **** 
