@<TRIPOS>MOLECULE
Cpptraj generated mol2 file.
  235   246     2     0     0
SMALL
USER_CHARGES


@<TRIPOS>ATOM
      1 CAA        78.2419   58.2452   34.8089 a2         1 CLA     -0.055900
      2 CAB        77.5926   61.7482   43.8640 c8         1 CLA     -0.148500
      3 CAC        71.3299   56.9714   43.3250 a2         1 CLA     -0.012600
      4 CAD        74.0677   55.5169   35.7210 ck         1 CLA      0.398800
      5 NA         77.0657   58.4394   38.2039 ns         1 CLA     -0.225500
      6 CBA        79.6482   58.2184   34.0835 a2         1 CLA     -0.135000
      7 CBB        78.5128   61.4164   44.8468 c0         1 CLA     -0.395200
      8 CBC        71.7299   55.4744   43.3874 a3         1 CLA     -0.037700
      9 CBD        75.6416   55.9594   35.5013 a1         1 CLA     -0.053900
     10 NB         76.7639   59.9858   40.7752 nm         1 CLA     -0.295700
     11 OBD        73.3844   54.8734   34.9480 o2         1 CLA     -0.494600
     12 CGA        80.2169   56.7276   33.7164 c4         1 CLA      0.827000
     13 CGD        76.5497   54.8153   35.2667 c4         1 CLA      0.655300
     14 ND         74.3206   57.3158   38.7394 nm         1 CLA     -0.291600
     15 CED        76.9746   52.4948   35.9389 a3         1 CLA      0.005400
     16 CHA        75.8702   56.8899   36.7183 cs         1 CLA     -0.123800
     17 CHB        78.6839   59.9267   39.2695 aa         1 CLA     -0.291900
     18 CHC        75.3699   59.9346   42.8893 aa         1 CLA     -0.090400
     19 CHD        72.5345   56.9312   40.3244 aa         1 CLA     -0.052000
     20 CMA        80.5899   58.0751   37.6650 a3         1 CLA     -0.230700
     21 CMB        80.0177   61.7328   41.6275 a3         1 CLA     -0.180800
     22 CMC        73.2373   58.9303   44.9940 a3         1 CLA     -0.134000
     23 CMD        71.2940   55.3725   37.7456 a3         1 CLA     -0.141100
     24 C1         81.4343   54.8290   34.6388 a2         1 CLA      0.023000
     25 C1A        77.0026   57.7065   37.0397 ac         1 CLA     -0.015100
     26 C1B        78.0138   60.3912   40.4335 cr         1 CLA      0.054700
     27 C1C        74.2918   59.1604   42.5550 cn         1 CLA     -0.005600
     28 C1D        73.1126   56.7051   39.0381 ap         1 CLA     -0.047300
     29 O1A        80.2866   56.1866   32.5933 o2         1 CLA     -0.610800
     30 O1D        77.4514   54.7846   34.4213 o2         1 CLA     -0.558200
     31 C2         81.9331   54.4818   36.0955 c8         1 CLA     -0.325100
     32 C2A        78.3051   57.7239   36.2745 a1         1 CLA      0.098600
     33 C2B        78.5675   61.1942   41.5071 cb         1 CLA      0.088500
     34 C2C        73.3401   58.6233   43.5050 cb         1 CLA      0.053700
     35 C2D        72.6069   56.0553   37.9041 cb         1 CLA      0.058900
     36 O2A        80.6122   56.0547   34.8023 o1         1 CLA     -0.437200
     37 O2D        76.3154   53.7414   36.0724 o1         1 CLA     -0.357600
     38 C3         82.4765   53.2933   36.4473 c5         1 CLA      0.031200
     39 C3A        79.1983   58.6325   37.1077 a1         1 CLA      0.166800
     40 C3B        77.5413   61.2197   42.5067 cb         1 CLA      0.035000
     41 C3C        72.5191   57.7589   42.7317 cb         1 CLA     -0.089900
     42 C3D        73.6376   56.0286   37.0062 cb         1 CLA     -0.035900
     43 C4         81.6759   52.0671   36.8287 a3         1 CLA     -0.053300
     44 C4A        78.2596   59.1392   38.1958 ac         1 CLA      0.001800
     45 C4B        76.4876   60.3695   42.0617 cn         1 CLA     -0.020900
     46 C4C        73.0537   57.7495   41.3986 cr         1 CLA     -0.044400
     47 C4D        74.7184   56.7933   37.5268 c6         1 CLA     -0.046000
     48 C5         83.9414   53.0114   36.3460 a2         1 CLA     -0.070400
     49 C6         84.9422   54.1155   36.2547 a2         1 CLA      0.043900
     50 C7         85.0424   54.8708   37.5686 a2         1 CLA     -0.150000
     51 C8         85.8914   56.1303   37.6672 a1         1 CLA      0.064200
     52 C9         87.4249   55.9183   37.3079 a3         1 CLA     -0.259300
     53 C10        85.9184   56.8013   39.0773 a2         1 CLA     -0.071900
     54 C11        84.5490   57.0240   39.6176 a2         1 CLA      0.014500
     55 C12        84.2726   57.7714   40.9583 a2         1 CLA     -0.112100
     56 C13        85.0554   57.2730   42.1684 a1         1 CLA      0.089200
     57 C14        84.6178   55.9343   42.7152 a3         1 CLA     -0.239100
     58 C15        85.1141   58.4379   43.2537 a2         1 CLA     -0.102200
     59 C16        83.7650   58.7535   43.9206 a2         1 CLA      0.023900
     60 C17        83.8563   59.9162   44.8661 a2         1 CLA     -0.105700
     61 C18        82.4531   60.4233   45.3279 a1         1 CLA      0.206800
     62 C19        81.4940   59.2432   45.4761 a3         1 CLA     -0.280100
     63 C20        82.5910   61.0066   46.7182 a3         1 CLA     -0.280100
     64 NC         74.1612   58.5378   41.3774 nx         1 CLA     -0.309200
     65 MG         75.4668   58.7983   39.6945 mg         1 CLA      0.895000
     66 HMD3       71.0251   55.0293   38.7139 dc         1 CLA      0.064300
     67 HMD2       70.5503   56.1549   37.5322 dc         1 CLA      0.064300
     68 HMD1       71.3636   54.5995   37.0330 dc         1 CLA      0.064300
     69 HMC3       72.5745   59.7018   45.2491 dc         1 CLA      0.052100
     70 HMC2       72.8408   58.0762   45.5434 dc         1 CLA      0.052100
     71 HMC1       74.1439   59.3054   45.4512 dc         1 CLA      0.052100
     72 HMB3       80.7647   60.9226   41.6158 dc         1 CLA      0.063600
     73 HMB2       80.2492   62.4318   40.7602 dc         1 CLA      0.063600
     74 HMB1       80.0412   62.2251   42.5897 dc         1 CLA      0.063600
     75 HMA3       80.4174   57.1490   38.2139 dc         1 CLA      0.058300
     76 HMA2       81.3079   57.9330   36.8438 dc         1 CLA      0.058300
     77 HMA1       81.0623   58.8164   38.2325 dc         1 CLA      0.058300
     78 HED3       76.6316   51.8524   36.7237 dc         1 CLA      0.079300
     79 HED2       76.7349   51.9936   34.9770 dc         1 CLA      0.079300
     80 HED1       78.0096   52.6558   36.0208 dc         1 CLA      0.079300
     81 HBC3       72.7013   55.3855   43.7861 dc         1 CLA      0.016300
     82 HBC2       71.1063   54.9835   44.1551 dc         1 CLA      0.016300
     83 HBC1       71.6832   54.9121   42.4119 dc         1 CLA      0.016300
     84 HBB2       78.4274   61.7215   45.8850 da         1 CLA      0.183000
     85 HBB1       79.3974   60.8297   44.5270 da         1 CLA      0.183000
     86 HBA2       79.5167   58.7625   33.1495 dc         1 CLA      0.029400
     87 HBA1       80.4089   58.6814   34.6363 dc         1 CLA      0.029400
     88 HAC2       71.1473   57.3214   44.3382 dc         1 CLA      0.029300
     89 HAC1       70.4486   57.0616   42.6984 dc         1 CLA      0.029300
     90 HAA2       77.4460   57.7323   34.1882 dc         1 CLA      0.028700
     91 HAA1       77.9505   59.2910   34.8114 dc         1 CLA      0.028700
     92 H203       81.6750   61.5467   46.9250 dc         1 CLA      0.065600
     93 H202       82.7804   60.2543   47.4986 dc         1 CLA      0.065600
     94 H201       83.3927   61.7747   46.5276 dc         1 CLA      0.065600
     95 H193       81.0866   58.8585   44.5650 dc         1 CLA      0.065600
     96 H192       81.9356   58.3382   45.9411 dc         1 CLA      0.065600
     97 H191       80.6404   59.5873   45.9649 dc         1 CLA      0.065600
     98 H172       84.4353   59.6642   45.7095 dc         1 CLA      0.027600
     99 H171       84.4016   60.7270   44.4425 dc         1 CLA      0.027600
    100 H162       83.0585   59.0735   43.2014 dc         1 CLA      0.002900
    101 H161       83.3536   57.8759   44.3752 dc         1 CLA      0.002900
    102 H152       85.8084   58.3565   44.0787 dc         1 CLA      0.029100
    103 H151       85.5165   59.3155   42.7191 dc         1 CLA      0.029100
    104 H143       85.3235   55.4584   43.3288 dc         1 CLA      0.063600
    105 H142       83.6581   56.1727   43.2020 dc         1 CLA      0.063600
    106 H141       84.3640   55.2329   41.8996 dc         1 CLA      0.063600
    107 H122       84.5067   58.8416   40.6965 dc         1 CLA      0.032500
    108 H121       83.1941   57.8108   41.1675 dc         1 CLA      0.032500
    109 H112       84.0175   57.4998   38.7936 dc         1 CLA      0.006600
    110 H111       84.1838   56.0297   39.7845 dc         1 CLA      0.006600
    111 H102       86.4736   56.2996   39.8516 dc         1 CLA      0.024100
    112 H101       86.4697   57.7244   38.8735 dc         1 CLA      0.024100
    113 HHD        71.4914   56.5415   40.3818 da         1 CLA      0.174300
    114 HHC        75.4837   60.3511   43.8622 da         1 CLA      0.136800
    115 HHB        79.6833   60.2887   39.1189 da         1 CLA      0.138300
    116 HBD        75.5961   56.4952   34.6019 dc         1 CLA      0.107700
    117 HAB        76.7005   62.3382   44.1981 da         1 CLA      0.155200
    118 H93        87.8095   55.2890   38.1041 dc         1 CLA      0.069500
    119 H92        87.4859   55.4761   36.3229 dc         1 CLA      0.069500
    120 H91        88.0534   56.8231   37.1697 dc         1 CLA      0.069500
    121 H8         85.4268   56.8889   36.9815 dc         1 CLA      0.029300
    122 H72        84.1018   55.0719   37.9268 dc         1 CLA      0.044400
    123 H71        85.4748   54.1302   38.2479 dc         1 CLA      0.044400
    124 H62        85.8864   53.6870   36.0268 dc         1 CLA      0.015600
    125 H61        84.6434   54.8240   35.4724 dc         1 CLA      0.015600
    126 H52        84.4014   52.3684   37.1055 dc         1 CLA      0.033200
    127 H51        83.9723   52.4968   35.4340 dc         1 CLA      0.033200
    128 H43        80.6009   52.2128   36.6196 dc         1 CLA      0.037000
    129 H42        82.0304   51.1194   36.3171 dc         1 CLA      0.037000
    130 H41        81.9308   51.8146   37.8555 dc         1 CLA      0.037000
    131 H3A        79.4557   59.5218   36.6159 dc         1 CLA      0.041100
    132 H2A        78.6378   56.7483   36.2583 dc         1 CLA      0.083100
    133 H2         81.6413   55.2260   36.8084 da         1 CLA      0.180900
    134 H18        82.0684   61.1253   44.6515 dc         1 CLA     -0.003900
    135 H13        86.0033   56.9328   41.8701 dc         1 CLA      0.019700
    136 H12        80.9766   53.9283   34.1829 dc         1 CLA      0.120400
    137 H11        82.3434   55.1161   34.0451 dc         1 CLA      0.120400
    138 C1         68.1646   61.0884   50.5370 Z1         2 LUT      0.509236
    139 C2         66.8983   61.0381   51.4482 Z2         2 LUT     -0.434695
    140 C3         65.7594   61.9911   51.3279 Z3         2 LUT      0.437453
    141 O3         65.2576   62.2845   52.6290 S1         2 LUT     -0.547129
    142 C4         66.2387   63.2765   50.6593 Z4         2 LUT     -0.468603
    143 C5         67.0032   63.0489   49.3792 Z5         2 LUT      0.279246
    144 C6         67.8553   61.9948   49.2957 Z6         2 LUT     -0.305473
    145 C7         68.1698   61.3674   47.9820 Z7         2 LUT      0.069402
    146 C8         69.0487   61.9474   47.1460 Z8         2 LUT     -0.191631
    147 C9         69.3626   61.5090   45.7968 Z9         2 LUT      0.196698
    148 C10        70.4008   62.2195   45.1932 Y1         2 LUT     -0.208611
    149 C11        71.0630   62.1295   43.8914 Y2         2 LUT      0.030784
    150 C12        72.0725   62.9845   43.4586 Y3         2 LUT     -0.220316
    151 C13        72.8896   62.8392   42.3011 Y4         2 LUT      0.215937
    152 C14        74.1013   63.5081   42.3817 Y5         2 LUT     -0.185793
    153 C15        75.0970   63.6341   41.3456 Y6         2 LUT     -0.057835
    154 C16        68.8053   59.6471   50.3071 Y7         2 LUT     -0.405615
    155 C17        69.1517   61.8254   51.5236 Y7         2 LUT     -0.405615
    156 C18        66.4117   63.7622   48.1772 Y9         2 LUT     -0.369639
    157 C19        68.6712   60.2943   45.1660 W1         2 LUT     -0.333362
    158 C20        72.5310   61.7917   41.2817 W2         2 LUT     -0.323439
    159 C21        86.3383   65.2520   35.0971 Z1         2 LUT      0.406104
    160 C22        87.2279   64.7662   33.9624 Z2         2 LUT     -0.404965
    161 C23        87.5785   65.7194   32.8524 Z3         2 LUT      0.391255
    162 O23        88.2506   64.8573   31.9676 S1         2 LUT     -0.528210
    163 C24        86.2335   66.4107   32.4639 W6         2 LUT     -0.258361
    164 C25        85.0760   66.4398   33.1893 Z5         2 LUT      0.133546
    165 C26        84.9147   65.6221   34.5237 W8         2 LUT     -0.147008
    166 C27        83.9549   66.2785   35.5819 Z7         2 LUT      0.023843
    167 C28        83.0389   65.5875   36.2930 Z8         2 LUT     -0.216987
    168 C29        82.3804   66.1722   37.3944 Z9         2 LUT      0.206524
    169 C30        81.2227   65.6073   37.8113 Y1         2 LUT     -0.215556
    170 C31        80.4272   65.8862   39.0578 Y2         2 LUT      0.025142
    171 C32        79.2790   65.1788   39.3730 Y3         2 LUT     -0.212209
    172 C33        78.4046   65.2169   40.5555 Y4         2 LUT      0.240937
    173 C34        77.2812   64.4566   40.5536 Y5         2 LUT     -0.218862
    174 C35        76.2599   64.3709   41.5449 Y6         2 LUT     -0.023547
    175 C36        87.0253   66.5333   35.6965 Y7         2 LUT     -0.393485
    176 C37        86.4286   64.2039   36.2163 Y7         2 LUT     -0.393485
    177 C38        83.8572   67.2018   32.7166 Y9         2 LUT     -0.387526
    178 C39        82.8806   67.4410   37.9783 W1         2 LUT     -0.322618
    179 C40        78.7720   66.0407   41.8002 W2         2 LUT     -0.358472
    180 H403       78.0470   66.8161   42.0822 R7         2 LUT      0.097720
    181 H402       78.8677   65.3243   42.6131 R7         2 LUT      0.097720
    182 H401       79.7917   66.5596   41.7023 R7         2 LUT      0.097720
    183 H393       82.5230   67.6390   38.9620 R4         2 LUT      0.082505
    184 H392       83.9404   67.5305   38.0671 R4         2 LUT      0.082505
    185 H391       82.6606   68.2892   37.2677 R4         2 LUT      0.082505
    186 H383       84.1803   67.8759   31.9032 R1         2 LUT      0.104030
    187 H382       83.0415   66.6022   32.3370 R1         2 LUT      0.104030
    188 H381       83.5289   67.8857   33.4704 R1         2 LUT      0.104030
    189 H373       85.9709   64.6903   37.0449 T4         2 LUT      0.089537
    190 H372       85.8898   63.2651   36.0070 T4         2 LUT      0.089537
    191 H371       87.4647   63.9515   36.5535 T4         2 LUT      0.089537
    192 H363       87.9324   66.2568   36.2774 T4         2 LUT      0.089537
    193 H362       87.3227   67.2781   34.9348 T4         2 LUT      0.089537
    194 H361       86.3347   67.0026   36.3816 T4         2 LUT      0.089537
    195 H222       88.2291   64.4739   34.4232 U2         2 LUT      0.127376
    196 H221       86.6850   63.8791   33.5609 U2         2 LUT      0.127376
    197 H203       72.2474   60.8410   41.7111 R7         2 LUT      0.087068
    198 H202       71.7462   62.2048   40.6158 R7         2 LUT      0.087068
    199 H201       73.4143   61.5464   40.6363 R7         2 LUT      0.087068
    200 H193       68.6898   59.3858   45.7916 R4         2 LUT      0.089716
    201 H192       67.6439   60.4750   44.7918 R4         2 LUT      0.089716
    202 H191       69.2073   59.8586   44.2486 R4         2 LUT      0.089716
    203 H183       67.1431   64.3359   47.6107 R1         2 LUT      0.094572
    204 H182       65.9405   62.9762   47.5667 R1         2 LUT      0.094572
    205 H181       65.6316   64.5122   48.5519 R1         2 LUT      0.094572
    206 H173       70.2149   61.8460   51.0771 T4         2 LUT      0.093752
    207 H172       68.7619   62.8462   51.8120 T4         2 LUT      0.093752
    208 H171       69.2821   61.2054   52.4466 T4         2 LUT      0.093752
    209 H163       68.7795   59.1758   51.2815 T4         2 LUT      0.093752
    210 H162       68.3043   58.9962   49.5825 T4         2 LUT      0.093752
    211 H161       69.8387   59.6944   49.9801 T4         2 LUT      0.093752
    212 HO3        64.7153   61.6021   52.9623 Q1         2 LUT      0.300121
    213 H8         69.5985   62.8629   47.5107 U7         2 LUT      0.080784
    214 H7         67.5597   60.4815   47.6818 U6         2 LUT      0.042190
    215 H42        65.3773   63.9264   50.5662 U5         2 LUT      0.145166
    216 H41        66.9107   63.7421   51.3759 U5         2 LUT      0.145166
    217 H35        76.4108   64.9402   42.4588 T3         2 LUT      0.077919
    218 H34        77.1545   63.9368   39.5767 T2         2 LUT      0.073626
    219 H32        78.8995   64.5113   38.5895 T1         2 LUT      0.092510
    220 H31        80.7905   66.5576   39.8692 U9         2 LUT      0.070048
    221 H30        80.9770   64.6972   37.1869 U8         2 LUT      0.085442
    222 H3         65.0255   61.6348   50.5829 U3         2 LUT     -0.031596
    223 H28        82.7241   64.6239   35.9274 U7         2 LUT      0.084728
    224 H27        84.2248   67.3066   35.8151 U6         2 LUT      0.087291
    225 H26        84.6843   64.5986   34.3103 Q6         2 LUT      0.075325
    226 H24        86.2762   66.9312   31.4563 Q5         2 LUT      0.094482
    227 H23        88.1750   66.5800   33.2432 U3         2 LUT     -0.024869
    228 H22        66.3488   60.1178   51.0695 U2         2 LUT      0.127376
    229 H21        67.0960   60.9512   52.5272 U2         2 LUT      0.127376
    230 H15        74.9353   63.0703   40.4464 T3         2 LUT      0.093200
    231 H14        74.2926   64.1512   43.2346 T2         2 LUT      0.068865
    232 H12        72.3180   63.7099   44.2666 T1         2 LUT      0.095507
    233 H11        70.8086   61.2667   43.2766 U9         2 LUT      0.068930
    234 H10        70.7349   63.0539   45.7814 U8         2 LUT      0.083911
    235 H1         88.5659   65.2541   31.1495 Q1         2 LUT      0.297311
@<TRIPOS>BOND
    1     6     1 1
    2     7     2 1
    3     8     3 1
    4     9     4 1
    5    11     4 1
    6    12     6 1
    7    13     9 1
    8    16     9 1
    9    25     5 1
   10    25    16 1
   11    26    10 1
   12    26    17 1
   13    27    18 1
   14    28    14 1
   15    28    19 1
   16    29    12 1
   17    30    13 1
   18    31    24 1
   19    32     1 1
   20    32    25 1
   21    33    21 1
   22    33    26 1
   23    34    22 1
   24    34    27 1
   25    35    23 1
   26    35    28 1
   27    36    12 1
   28    36    24 1
   29    37    13 1
   30    37    15 1
   31    38    31 1
   32    39    20 1
   33    39    32 1
   34    40     2 1
   35    40    33 1
   36    41     3 1
   37    41    34 1
   38    42     4 1
   39    42    35 1
   40    43    38 1
   41    44     5 1
   42    44    17 1
   43    44    39 1
   44    45    10 1
   45    45    18 1
   46    45    40 1
   47    46    19 1
   48    46    41 1
   49    47    14 1
   50    47    16 1
   51    47    42 1
   52    48    38 1
   53    49    48 1
   54    50    49 1
   55    51    50 1
   56    52    51 1
   57    53    51 1
   58    54    53 1
   59    55    54 1
   60    56    55 1
   61    57    56 1
   62    58    56 1
   63    59    58 1
   64    60    59 1
   65    61    60 1
   66    62    61 1
   67    63    61 1
   68    64    27 1
   69    64    46 1
   70    65     5 1
   71    65    10 1
   72    65    64 1
   73    65    14 1
   74    66    23 1
   75    67    23 1
   76    68    23 1
   77    69    22 1
   78    70    22 1
   79    71    22 1
   80    72    21 1
   81    73    21 1
   82    74    21 1
   83    75    20 1
   84    76    20 1
   85    77    20 1
   86    78    15 1
   87    79    15 1
   88    80    15 1
   89    81     8 1
   90    82     8 1
   91    83     8 1
   92    84     7 1
   93    85     7 1
   94    86     6 1
   95    87     6 1
   96    88     3 1
   97    89     3 1
   98    90     1 1
   99    91     1 1
  100    92    63 1
  101    93    63 1
  102    94    63 1
  103    95    62 1
  104    96    62 1
  105    97    62 1
  106    98    60 1
  107    99    60 1
  108   100    59 1
  109   101    59 1
  110   102    58 1
  111   103    58 1
  112   104    57 1
  113   105    57 1
  114   106    57 1
  115   107    55 1
  116   108    55 1
  117   109    54 1
  118   110    54 1
  119   111    53 1
  120   112    53 1
  121   113    19 1
  122   114    18 1
  123   115    17 1
  124   116     9 1
  125   117     2 1
  126   118    52 1
  127   119    52 1
  128   120    52 1
  129   121    51 1
  130   122    50 1
  131   123    50 1
  132   124    49 1
  133   125    49 1
  134   126    48 1
  135   127    48 1
  136   128    43 1
  137   129    43 1
  138   130    43 1
  139   131    39 1
  140   132    32 1
  141   133    31 1
  142   134    61 1
  143   135    56 1
  144   136    24 1
  145   137    24 1
  146   139   138 1
  147   140   139 1
  148   141   140 1
  149   142   140 1
  150   143   142 1
  151   144   138 1
  152   144   143 1
  153   145   144 1
  154   146   145 1
  155   147   146 1
  156   148   147 1
  157   149   148 1
  158   150   149 1
  159   151   150 1
  160   152   151 1
  161   153   152 1
  162   154   138 1
  163   155   138 1
  164   156   143 1
  165   157   147 1
  166   158   151 1
  167   160   159 1
  168   161   160 1
  169   162   161 1
  170   163   161 1
  171   164   163 1
  172   165   159 1
  173   165   164 1
  174   166   165 1
  175   167   166 1
  176   168   167 1
  177   169   168 1
  178   170   169 1
  179   171   170 1
  180   172   171 1
  181   173   172 1
  182   174   153 1
  183   174   173 1
  184   175   159 1
  185   176   159 1
  186   177   164 1
  187   178   168 1
  188   179   172 1
  189   180   179 1
  190   181   179 1
  191   182   179 1
  192   183   178 1
  193   184   178 1
  194   185   178 1
  195   186   177 1
  196   187   177 1
  197   188   177 1
  198   189   176 1
  199   190   176 1
  200   191   176 1
  201   192   175 1
  202   193   175 1
  203   194   175 1
  204   195   160 1
  205   196   160 1
  206   197   158 1
  207   198   158 1
  208   199   158 1
  209   200   157 1
  210   201   157 1
  211   202   157 1
  212   203   156 1
  213   204   156 1
  214   205   156 1
  215   206   155 1
  216   207   155 1
  217   208   155 1
  218   209   154 1
  219   210   154 1
  220   211   154 1
  221   212   141 1
  222   213   146 1
  223   214   145 1
  224   215   142 1
  225   216   142 1
  226   217   174 1
  227   218   173 1
  228   219   171 1
  229   220   170 1
  230   221   169 1
  231   222   140 1
  232   223   167 1
  233   224   166 1
  234   225   165 1
  235   226   163 1
  236   227   161 1
  237   228   139 1
  238   229   139 1
  239   230   153 1
  240   231   152 1
  241   232   150 1
  242   233   149 1
  243   234   148 1
  244   235   162 1
  245   65    153 1
  246   65    174 1
@<TRIPOS>SUBSTRUCTURE
      1 CLA               1 ****               0 ****  **** 
      2 LUT             138 ****               0 ****  **** 
