@<TRIPOS>MOLECULE
Cpptraj generated mol2 file.
  235   246     2     0     0
SMALL
USER_CHARGES


@<TRIPOS>ATOM
      1 CAA        80.5067   59.3610   33.5938 a2         1 CLA     -0.055900
      2 CAB        79.9137   62.7397   42.9389 c8         1 CLA     -0.148500
      3 CAC        73.1787   58.3748   41.9935 a2         1 CLA     -0.012600
      4 CAD        76.4771   56.2598   34.7120 ck         1 CLA      0.398800
      5 NA         79.2374   59.6724   37.0739 ns         1 CLA     -0.225500
      6 CBA        81.8772   59.0861   32.9226 a2         1 CLA     -0.135000
      7 CBB        80.9155   62.3174   43.7416 c0         1 CLA     -0.395200
      8 CBC        73.3425   56.8081   41.9375 a3         1 CLA     -0.037700
      9 CBD        77.8218   57.1416   34.3487 a1         1 CLA     -0.053900
     10 NB         78.8509   61.0937   39.7618 nm         1 CLA     -0.295700
     11 OBD        76.1579   55.2690   34.0675 o2         1 CLA     -0.494600
     12 CGA        82.2156   57.6720   32.5949 c4         1 CLA      0.827000
     13 CGD        78.9450   56.1158   34.1159 c4         1 CLA      0.655300
     14 ND         76.5312   58.4882   37.4866 nm         1 CLA     -0.291600
     15 CED        79.9853   54.0916   35.0564 a3         1 CLA      0.005400
     16 CHA        78.0195   58.1621   35.5164 cs         1 CLA     -0.123800
     17 CHB        80.7526   61.1851   38.1665 aa         1 CLA     -0.291900
     18 CHC        77.4020   61.2358   41.7109 aa         1 CLA     -0.090400
     19 CHD        74.6308   58.2172   39.0155 aa         1 CLA     -0.052000
     20 CMA        82.7353   59.4218   36.4605 a3         1 CLA     -0.230700
     21 CMB        82.1144   62.8504   40.4151 a3         1 CLA     -0.180800
     22 CMC        74.9253   60.5058   43.5077 a3         1 CLA     -0.134000
     23 CMD        73.5829   56.2501   36.7580 a3         1 CLA     -0.141100
     24 C1         83.3322   55.7274   33.4385 a2         1 CLA      0.023000
     25 C1A        79.1507   58.9340   35.8751 ac         1 CLA     -0.015100
     26 C1B        80.1068   61.5278   39.3716 cr         1 CLA      0.054700
     27 C1C        76.3053   60.4112   41.3160 cn         1 CLA     -0.005600
     28 C1D        75.2492   57.9248   37.7445 ap         1 CLA     -0.047300
     29 O1A        82.1334   57.1600   31.4691 o2         1 CLA     -0.610800
     30 O1D        79.7048   56.0635   33.1595 o2         1 CLA     -0.558200
     31 C2         83.7302   55.1099   34.8444 c8         1 CLA     -0.325100
     32 C2A        80.5174   58.9501   35.1242 a1         1 CLA      0.098600
     33 C2B        80.7304   62.2929   40.4631 cb         1 CLA      0.088500
     34 C2C        75.1204   60.1049   42.0945 cb         1 CLA      0.053700
     35 C2D        74.8516   56.9251   36.7717 cb         1 CLA      0.058900
     36 O2A        82.7962   57.0743   33.6731 o1         1 CLA     -0.437200
     37 O2D        79.0214   55.2013   35.1560 o1         1 CLA     -0.357600
     38 C3         84.4422   53.9914   35.1590 c5         1 CLA      0.031200
     39 C3A        81.3065   59.9572   36.0037 a1         1 CLA      0.166800
     40 C3B        79.7698   62.2186   41.4978 cb         1 CLA      0.035000
     41 C3C        74.4032   59.1675   41.3463 cb         1 CLA     -0.089900
     42 C3D        75.9833   56.9423   35.9126 cb         1 CLA     -0.035900
     43 C4         83.9032   52.6068   35.3072 a3         1 CLA     -0.053300
     44 C4A        80.3917   60.3029   37.1436 ac         1 CLA      0.001800
     45 C4B        78.6057   61.5560   41.0090 cn         1 CLA     -0.020900
     46 C4C        75.0096   59.0909   40.0556 cr         1 CLA     -0.044400
     47 C4D        76.9137   57.8838   36.3366 c6         1 CLA     -0.046000
     48 C5         85.8905   53.9401   35.4929 a2         1 CLA     -0.070400
     49 C6         86.5330   55.2886   35.9649 a2         1 CLA      0.043900
     50 C7         86.2910   55.5369   37.4304 a2         1 CLA     -0.150000
     51 C8         86.8032   56.9415   38.0037 a1         1 CLA      0.064200
     52 C9         88.1689   57.3389   37.3922 a3         1 CLA     -0.259300
     53 C10        86.8194   56.8140   39.5346 a2         1 CLA     -0.071900
     54 C11        87.1531   58.0943   40.3823 a2         1 CLA      0.014500
     55 C12        87.4273   57.7784   41.8634 a2         1 CLA     -0.112100
     56 C13        87.6801   59.0510   42.7503 a1         1 CLA      0.089200
     57 C14        89.0991   59.7375   42.4899 a3         1 CLA     -0.239100
     58 C15        87.7161   58.6640   44.2912 a2         1 CLA     -0.102200
     59 C16        86.3434   58.3138   44.8037 a2         1 CLA      0.023900
     60 C17        85.4511   59.5253   45.1989 a2         1 CLA     -0.105700
     61 C18        84.0987   59.1848   45.8602 a1         1 CLA      0.206800
     62 C19        84.1740   58.5904   47.2264 a3         1 CLA     -0.280100
     63 C20        83.1561   60.4369   45.8901 a3         1 CLA     -0.280100
     64 NC         76.2213   59.7823   40.1001 nx         1 CLA     -0.309200
     65 MG         77.6032   59.9961   38.5215 mg         1 CLA      0.895000
     66 HMD3       72.7493   56.8859   37.0579 dc         1 CLA      0.064300
     67 HMD2       73.3420   55.9717   35.7368 dc         1 CLA      0.064300
     68 HMD1       73.5675   55.2871   37.2446 dc         1 CLA      0.064300
     69 HMC3       73.8662   60.7508   43.6696 dc         1 CLA      0.052100
     70 HMC2       75.1493   59.6166   44.0678 dc         1 CLA      0.052100
     71 HMC1       75.4918   61.3871   43.8147 dc         1 CLA      0.052100
     72 HMB3       82.8465   62.1238   40.4330 dc         1 CLA      0.063600
     73 HMB2       82.2627   63.4551   39.4924 dc         1 CLA      0.063600
     74 HMB1       82.2712   63.4241   41.3847 dc         1 CLA      0.063600
     75 HMA3       82.4161   58.7007   37.2337 dc         1 CLA      0.058300
     76 HMA2       83.1612   58.8387   35.5861 dc         1 CLA      0.058300
     77 HMA1       83.3726   60.1384   36.9479 dc         1 CLA      0.058300
     78 HED3       80.8581   54.5177   34.6153 dc         1 CLA      0.079300
     79 HED2       80.3327   53.8360   36.0394 dc         1 CLA      0.079300
     80 HED1       79.5657   53.2754   34.4602 dc         1 CLA      0.079300
     81 HBC3       72.4623   56.3324   42.3560 dc         1 CLA      0.016300
     82 HBC2       73.3492   56.4968   40.8841 dc         1 CLA      0.016300
     83 HBC1       74.1736   56.4198   42.5116 dc         1 CLA      0.016300
     84 HBB2       81.0724   62.7933   44.6937 da         1 CLA      0.183000
     85 HBB1       81.7075   61.7609   43.1952 da         1 CLA      0.183000
     86 HBA2       81.8418   59.5300   31.9114 dc         1 CLA      0.029400
     87 HBA1       82.6129   59.5961   33.4158 dc         1 CLA      0.029400
     88 HAC2       72.9771   58.6680   42.9763 dc         1 CLA      0.029300
     89 HAC1       72.2741   58.5969   41.4163 dc         1 CLA      0.029300
     90 HAA2       79.7956   58.7608   33.1437 dc         1 CLA      0.028700
     91 HAA1       80.0919   60.3961   33.4959 dc         1 CLA      0.028700
     92 H203       83.1310   60.9691   44.9886 dc         1 CLA      0.065600
     93 H202       82.1534   60.1796   46.0996 dc         1 CLA      0.065600
     94 H201       83.4397   61.1383   46.6756 dc         1 CLA      0.065600
     95 H193       83.2226   58.2279   47.6385 dc         1 CLA      0.065600
     96 H192       84.7730   57.6718   47.0946 dc         1 CLA      0.065600
     97 H191       84.6120   59.2642   47.9153 dc         1 CLA      0.065600
     98 H172       86.0314   60.1441   45.9102 dc         1 CLA      0.027600
     99 H171       85.2830   60.0887   44.3210 dc         1 CLA      0.027600
    100 H162       85.7368   57.6952   44.2330 dc         1 CLA      0.002900
    101 H161       86.4994   57.7890   45.7477 dc         1 CLA      0.002900
    102 H152       88.2990   57.8230   44.4669 dc         1 CLA      0.029100
    103 H151       88.2031   59.3822   44.9487 dc         1 CLA      0.029100
    104 H143       89.2077   60.5261   43.2679 dc         1 CLA      0.063600
    105 H142       89.8839   58.9536   42.6637 dc         1 CLA      0.063600
    106 H141       89.1362   60.1918   41.5116 dc         1 CLA      0.063600
    107 H122       86.5837   57.2502   42.3166 dc         1 CLA      0.032500
    108 H121       88.3576   57.1930   41.9525 dc         1 CLA      0.032500
    109 H112       88.0073   58.7033   40.0893 dc         1 CLA      0.006600
    110 H111       86.3706   58.8148   40.3296 dc         1 CLA      0.006600
    111 H102       85.8707   56.3567   39.8381 dc         1 CLA      0.024100
    112 H101       87.6274   56.1693   39.6854 dc         1 CLA      0.024100
    113 HHD        73.7103   57.7136   39.2164 da         1 CLA      0.174300
    114 HHC        77.4206   61.6155   42.7210 da         1 CLA      0.136800
    115 HHB        81.7868   61.5832   37.9941 da         1 CLA      0.138300
    116 HBD        77.6508   57.7050   33.4627 dc         1 CLA      0.107700
    117 HAB        79.1490   63.4391   43.2507 da         1 CLA      0.155200
    118 H93        88.8098   56.5194   37.3582 dc         1 CLA      0.069500
    119 H92        88.0882   57.6612   36.3410 dc         1 CLA      0.069500
    120 H91        88.7283   58.0633   37.9343 dc         1 CLA      0.069500
    121 H8         86.0518   57.6682   37.8517 dc         1 CLA      0.029300
    122 H72        85.2379   55.3703   37.6748 dc         1 CLA      0.044400
    123 H71        86.8529   54.7437   37.9872 dc         1 CLA      0.044400
    124 H62        87.6008   55.2876   35.8262 dc         1 CLA      0.015600
    125 H61        86.2297   56.1114   35.3376 dc         1 CLA      0.015600
    126 H52        86.2026   53.1271   36.1957 dc         1 CLA      0.033200
    127 H51        86.2855   53.7577   34.4679 dc         1 CLA      0.033200
    128 H43        84.3952   51.8804   34.6893 dc         1 CLA      0.037000
    129 H42        83.8453   52.3869   36.3383 dc         1 CLA      0.037000
    130 H41        82.8737   52.7599   35.0022 dc         1 CLA      0.037000
    131 H3A        81.4333   60.9011   35.4205 dc         1 CLA      0.041100
    132 H2A        80.8315   57.9620   35.2636 dc         1 CLA      0.083100
    133 H2         83.3345   55.6804   35.7230 da         1 CLA      0.180900
    134 H18        83.5683   58.5214   45.1616 dc         1 CLA     -0.003900
    135 H13        86.9595   59.8260   42.5778 dc         1 CLA      0.019700
    136 H12        82.5050   55.0743   33.1170 dc         1 CLA      0.120400
    137 H11        84.1370   55.7855   32.6565 dc         1 CLA      0.120400
    138 C1         69.5565   61.8094   49.4063 Z1         2 LUT      0.509236
    139 C2         68.1273   61.7312   49.9114 Z2         2 LUT     -0.434695
    140 C3         67.3809   63.0352   50.3265 Z3         2 LUT      0.437453
    141 O3         67.3769   63.2010   51.7338 S1         2 LUT     -0.547129
    142 C4         67.9602   64.2150   49.6031 Z4         2 LUT     -0.468603
    143 C5         68.7160   63.9029   48.2909 Z5         2 LUT      0.279246
    144 C6         69.6436   62.8640   48.2731 Z6         2 LUT     -0.305473
    145 C7         70.2349   62.5014   46.9455 Z7         2 LUT      0.069402
    146 C8         71.1531   63.2161   46.1673 Z8         2 LUT     -0.191631
    147 C9         71.6281   62.9467   44.8219 Z9         2 LUT      0.196698
    148 C10        72.7924   63.6023   44.4504 Y1         2 LUT     -0.208611
    149 C11        73.4943   63.5331   43.2141 Y2         2 LUT      0.030784
    150 C12        74.7440   63.9989   42.9363 Y3         2 LUT     -0.220316
    151 C13        75.5383   63.9572   41.6447 Y4         2 LUT      0.215937
    152 C14        76.7013   64.7380   41.6871 Y5         2 LUT     -0.185793
    153 C15        77.7662   64.9883   40.8151 Y6         2 LUT     -0.057835
    154 C16        69.9302   60.3963   48.8833 Y7         2 LUT     -0.405615
    155 C17        70.4275   62.2303   50.6863 Y7         2 LUT     -0.405615
    156 C18        68.0592   64.5225   47.1495 Y9         2 LUT     -0.369639
    157 C19        70.9184   61.9266   43.9488 W1         2 LUT     -0.333362
    158 C20        74.9074   63.4640   40.3989 W2         2 LUT     -0.323439
    159 C21        89.4732   66.0216   35.1243 Z1         2 LUT      0.406104
    160 C22        90.1237   65.5316   33.7481 Z2         2 LUT     -0.404965
    161 C23        89.9807   66.5335   32.5486 Z3         2 LUT      0.391255
    162 O23        90.5671   65.9614   31.3808 S1         2 LUT     -0.528210
    163 C24        88.5415   66.8995   32.3986 W6         2 LUT     -0.258361
    164 C25        87.6537   66.9406   33.3780 Z5         2 LUT      0.133546
    165 C26        87.9836   66.4013   34.8040 W8         2 LUT     -0.147008
    166 C27        87.3364   67.1207   35.9203 Z7         2 LUT      0.023843
    167 C28        85.9846   66.9519   36.3261 Z8         2 LUT     -0.216987
    168 C29        85.3643   67.4902   37.5092 Z9         2 LUT      0.206524
    169 C30        84.1615   66.9161   37.8309 Y1         2 LUT     -0.215556
    170 C31        83.3938   67.1287   39.0376 Y2         2 LUT      0.025142
    171 C32        82.1460   66.4960   39.3014 Y3         2 LUT     -0.212209
    172 C33        81.1642   66.5777   40.4226 Y4         2 LUT      0.240937
    173 C34        79.9389   65.9506   40.2545 Y5         2 LUT     -0.218862
    174 C35        78.9109   65.6723   41.1186 Y6         2 LUT     -0.023547
    175 C36        90.3664   67.1431   35.5819 Y7         2 LUT     -0.393485
    176 C37        89.6666   64.8398   36.0312 Y7         2 LUT     -0.393485
    177 C38        86.1697   67.1986   33.1117 Y9         2 LUT     -0.387526
    178 C39        86.0099   68.4660   38.4110 W1         2 LUT     -0.322618
    179 C40        81.5634   67.4600   41.5532 W2         2 LUT     -0.358472
    180 H403       80.8753   67.4357   42.4056 R7         2 LUT      0.097720
    181 H402       82.6362   67.4280   41.7540 R7         2 LUT      0.097720
    182 H401       81.5240   68.5617   41.3659 R7         2 LUT      0.097720
    183 H393       86.4406   67.9956   39.2678 R4         2 LUT      0.082505
    184 H392       86.8217   68.9955   37.9441 R4         2 LUT      0.082505
    185 H391       85.2685   69.2495   38.6498 R4         2 LUT      0.082505
    186 H383       86.0837   67.9869   32.3745 R1         2 LUT      0.104030
    187 H382       85.5376   66.4058   32.8288 R1         2 LUT      0.104030
    188 H381       85.6817   67.6049   33.9957 R1         2 LUT      0.104030
    189 H373       90.7452   64.5981   36.0237 T4         2 LUT      0.089537
    190 H372       89.2716   65.1514   37.0716 T4         2 LUT      0.089537
    191 H371       89.1402   63.8856   35.6810 T4         2 LUT      0.089537
    192 H363       90.1574   68.0317   35.0023 T4         2 LUT      0.089537
    193 H362       90.2754   67.3557   36.6482 T4         2 LUT      0.089537
    194 H361       91.4209   66.8665   35.4600 T4         2 LUT      0.089537
    195 H222       91.1613   65.1915   33.8682 U2         2 LUT      0.127376
    196 H221       89.5312   64.7239   33.3736 U2         2 LUT      0.127376
    197 H203       74.5995   64.1995   39.6819 R7         2 LUT      0.087068
    198 H202       75.6634   62.8491   40.0745 R7         2 LUT      0.087068
    199 H201       74.0287   62.8482   40.5438 R7         2 LUT      0.087068
    200 H193       70.8993   62.1896   42.8883 R4         2 LUT      0.089716
    201 H192       71.4028   60.9150   43.9851 R4         2 LUT      0.089716
    202 H191       69.8545   61.8223   44.3628 R4         2 LUT      0.089716
    203 H183       68.6567   64.3267   46.2612 R1         2 LUT      0.094572
    204 H182       67.1309   64.0331   47.0217 R1         2 LUT      0.094572
    205 H181       67.8752   65.5387   47.3499 R1         2 LUT      0.094572
    206 H173       70.1001   61.8378   51.7005 T4         2 LUT      0.093752
    207 H172       71.5178   62.0619   50.5223 T4         2 LUT      0.093752
    208 H171       70.1746   63.2644   50.7157 T4         2 LUT      0.093752
    209 H163       70.9394   60.4851   48.5583 T4         2 LUT      0.093752
    210 H162       69.9499   59.5603   49.6590 T4         2 LUT      0.093752
    211 H161       69.2385   60.0721   48.0383 T4         2 LUT      0.093752
    212 HO3        66.7205   62.6640   52.1595 Q1         2 LUT      0.300121
    213 H8         71.4744   64.1144   46.6469 U7         2 LUT      0.080784
    214 H7         69.7225   61.6806   46.4393 U6         2 LUT      0.042190
    215 H42        67.1458   64.9436   49.4200 U5         2 LUT      0.145166
    216 H41        68.5213   64.8283   50.3250 U5         2 LUT      0.145166
    217 H35        78.9772   66.0787   42.1897 T3         2 LUT      0.077919
    218 H34        79.7769   65.4503   39.2774 T2         2 LUT      0.073626
    219 H32        81.7684   65.9454   38.4164 T1         2 LUT      0.092510
    220 H31        83.8206   67.7494   39.7886 U9         2 LUT      0.070048
    221 H30        83.7691   66.2187   37.1314 U8         2 LUT      0.085442
    222 H3         66.4061   62.9743   49.9010 U3         2 LUT     -0.031596
    223 H28        85.3214   66.2991   35.8135 U7         2 LUT      0.084728
    224 H27        87.9233   67.7933   36.5007 U6         2 LUT      0.087291
    225 H26        87.4814   65.4319   34.8459 Q6         2 LUT      0.075325
    226 H24        88.1415   67.2664   31.4780 Q5         2 LUT      0.094482
    227 H23        90.5860   67.4597   32.7803 U3         2 LUT     -0.024869
    228 H22        67.4453   61.3529   49.1736 U2         2 LUT      0.127376
    229 H21        68.0767   60.9997   50.7634 U2         2 LUT      0.127376
    230 H15        77.5984   64.6381   39.8236 T3         2 LUT      0.093200
    231 H14        76.8243   65.2755   42.5888 T2         2 LUT      0.068865
    232 H12        75.1977   64.4974   43.7751 T1         2 LUT      0.095507
    233 H11        73.0191   63.0747   42.3985 U9         2 LUT      0.068930
    234 H10        73.2443   64.1709   45.1875 U8         2 LUT      0.083911
    235 H1         90.2927   66.3480   30.5572 Q1         2 LUT      0.297311
@<TRIPOS>BOND
    1     6     1 1
    2     7     2 1
    3     8     3 1
    4     9     4 1
    5    11     4 1
    6    12     6 1
    7    13     9 1
    8    16     9 1
    9    25     5 1
   10    25    16 1
   11    26    10 1
   12    26    17 1
   13    27    18 1
   14    28    14 1
   15    28    19 1
   16    29    12 1
   17    30    13 1
   18    31    24 1
   19    32     1 1
   20    32    25 1
   21    33    21 1
   22    33    26 1
   23    34    22 1
   24    34    27 1
   25    35    23 1
   26    35    28 1
   27    36    12 1
   28    36    24 1
   29    37    13 1
   30    37    15 1
   31    38    31 1
   32    39    20 1
   33    39    32 1
   34    40     2 1
   35    40    33 1
   36    41     3 1
   37    41    34 1
   38    42     4 1
   39    42    35 1
   40    43    38 1
   41    44     5 1
   42    44    17 1
   43    44    39 1
   44    45    10 1
   45    45    18 1
   46    45    40 1
   47    46    19 1
   48    46    41 1
   49    47    14 1
   50    47    16 1
   51    47    42 1
   52    48    38 1
   53    49    48 1
   54    50    49 1
   55    51    50 1
   56    52    51 1
   57    53    51 1
   58    54    53 1
   59    55    54 1
   60    56    55 1
   61    57    56 1
   62    58    56 1
   63    59    58 1
   64    60    59 1
   65    61    60 1
   66    62    61 1
   67    63    61 1
   68    64    27 1
   69    64    46 1
   70    65     5 1
   71    65    10 1
   72    65    64 1
   73    65    14 1
   74    66    23 1
   75    67    23 1
   76    68    23 1
   77    69    22 1
   78    70    22 1
   79    71    22 1
   80    72    21 1
   81    73    21 1
   82    74    21 1
   83    75    20 1
   84    76    20 1
   85    77    20 1
   86    78    15 1
   87    79    15 1
   88    80    15 1
   89    81     8 1
   90    82     8 1
   91    83     8 1
   92    84     7 1
   93    85     7 1
   94    86     6 1
   95    87     6 1
   96    88     3 1
   97    89     3 1
   98    90     1 1
   99    91     1 1
  100    92    63 1
  101    93    63 1
  102    94    63 1
  103    95    62 1
  104    96    62 1
  105    97    62 1
  106    98    60 1
  107    99    60 1
  108   100    59 1
  109   101    59 1
  110   102    58 1
  111   103    58 1
  112   104    57 1
  113   105    57 1
  114   106    57 1
  115   107    55 1
  116   108    55 1
  117   109    54 1
  118   110    54 1
  119   111    53 1
  120   112    53 1
  121   113    19 1
  122   114    18 1
  123   115    17 1
  124   116     9 1
  125   117     2 1
  126   118    52 1
  127   119    52 1
  128   120    52 1
  129   121    51 1
  130   122    50 1
  131   123    50 1
  132   124    49 1
  133   125    49 1
  134   126    48 1
  135   127    48 1
  136   128    43 1
  137   129    43 1
  138   130    43 1
  139   131    39 1
  140   132    32 1
  141   133    31 1
  142   134    61 1
  143   135    56 1
  144   136    24 1
  145   137    24 1
  146   139   138 1
  147   140   139 1
  148   141   140 1
  149   142   140 1
  150   143   142 1
  151   144   138 1
  152   144   143 1
  153   145   144 1
  154   146   145 1
  155   147   146 1
  156   148   147 1
  157   149   148 1
  158   150   149 1
  159   151   150 1
  160   152   151 1
  161   153   152 1
  162   154   138 1
  163   155   138 1
  164   156   143 1
  165   157   147 1
  166   158   151 1
  167   160   159 1
  168   161   160 1
  169   162   161 1
  170   163   161 1
  171   164   163 1
  172   165   159 1
  173   165   164 1
  174   166   165 1
  175   167   166 1
  176   168   167 1
  177   169   168 1
  178   170   169 1
  179   171   170 1
  180   172   171 1
  181   173   172 1
  182   174   153 1
  183   174   173 1
  184   175   159 1
  185   176   159 1
  186   177   164 1
  187   178   168 1
  188   179   172 1
  189   180   179 1
  190   181   179 1
  191   182   179 1
  192   183   178 1
  193   184   178 1
  194   185   178 1
  195   186   177 1
  196   187   177 1
  197   188   177 1
  198   189   176 1
  199   190   176 1
  200   191   176 1
  201   192   175 1
  202   193   175 1
  203   194   175 1
  204   195   160 1
  205   196   160 1
  206   197   158 1
  207   198   158 1
  208   199   158 1
  209   200   157 1
  210   201   157 1
  211   202   157 1
  212   203   156 1
  213   204   156 1
  214   205   156 1
  215   206   155 1
  216   207   155 1
  217   208   155 1
  218   209   154 1
  219   210   154 1
  220   211   154 1
  221   212   141 1
  222   213   146 1
  223   214   145 1
  224   215   142 1
  225   216   142 1
  226   217   174 1
  227   218   173 1
  228   219   171 1
  229   220   170 1
  230   221   169 1
  231   222   140 1
  232   223   167 1
  233   224   166 1
  234   225   165 1
  235   226   163 1
  236   227   161 1
  237   228   139 1
  238   229   139 1
  239   230   153 1
  240   231   152 1
  241   232   150 1
  242   233   149 1
  243   234   148 1
  244   235   162 1
  245   65    153 1
  246   65    174 1
@<TRIPOS>SUBSTRUCTURE
      1 CLA               1 ****               0 ****  **** 
      2 LUT             138 ****               0 ****  **** 
