@<TRIPOS>MOLECULE
Cpptraj generated mol2 file.
  235   246     2     0     0
SMALL
USER_CHARGES


@<TRIPOS>ATOM
      1 CAA        79.4937   59.5087   34.2548 a2         1 CLA     -0.055900
      2 CAB        79.5796   62.8501   43.3807 c8         1 CLA     -0.148500
      3 CAC        72.4824   59.1898   42.6353 a2         1 CLA     -0.012600
      4 CAD        75.2197   56.8262   35.3762 ck         1 CLA      0.398800
      5 NA         78.4365   59.7055   37.7150 ns         1 CLA     -0.225500
      6 CBA        80.7299   59.3898   33.3409 a2         1 CLA     -0.135000
      7 CBB        80.6847   62.6983   44.1659 c0         1 CLA     -0.395200
      8 CBC        72.5070   57.6902   42.7523 a3         1 CLA     -0.037700
      9 CBD        76.6922   57.3807   35.0545 a1         1 CLA     -0.053900
     10 NB         78.4064   61.1470   40.2445 nm         1 CLA     -0.295700
     11 OBD        74.5985   56.0689   34.6502 o2         1 CLA     -0.494600
     12 CGA        81.2254   57.9733   32.9420 c4         1 CLA      0.827000
     13 CGD        77.6897   56.3064   34.7351 c4         1 CLA      0.655300
     14 ND         75.7162   59.0093   38.1635 nm         1 CLA     -0.291600
     15 CED        78.3377   54.0771   35.1195 a3         1 CLA      0.005400
     16 CHA        77.1013   58.2409   36.2770 cs         1 CLA     -0.123800
     17 CHB        80.3093   61.1075   38.6140 aa         1 CLA     -0.291900
     18 CHC        77.0300   61.4761   42.2843 aa         1 CLA     -0.090400
     19 CHD        73.9221   58.8761   39.8053 aa         1 CLA     -0.052000
     20 CMA        81.7099   58.7724   37.1420 a3         1 CLA     -0.230700
     21 CMB        81.7642   62.6382   40.8839 a3         1 CLA     -0.180800
     22 CMC        74.7261   61.4251   44.1907 a3         1 CLA     -0.134000
     23 CMD        72.6036   56.8511   37.6317 a3         1 CLA     -0.141100
     24 C1         82.9108   56.4104   33.3597 a2         1 CLA      0.023000
     25 C1A        78.3312   58.8786   36.5624 ac         1 CLA     -0.015100
     26 C1B        79.7602   61.4398   39.8566 cr         1 CLA      0.054700
     27 C1C        75.8888   60.8148   41.9669 cn         1 CLA     -0.005600
     28 C1D        74.4518   58.6141   38.5378 ap         1 CLA     -0.047300
     29 O1A        81.1217   57.4855   31.7901 o2         1 CLA     -0.610800
     30 O1D        78.5568   56.3906   33.8244 o2         1 CLA     -0.558200
     31 C2         83.3038   55.6454   34.6675 c8         1 CLA     -0.325100
     32 C2A        79.5958   58.7880   35.6383 a1         1 CLA      0.098600
     33 C2B        80.3194   62.1198   40.9865 cb         1 CLA      0.088500
     34 C2C        74.7346   60.7378   42.8204 cb         1 CLA      0.053700
     35 C2D        73.8608   57.6870   37.6037 cb         1 CLA      0.058900
     36 O2A        82.1253   57.5011   33.9222 o1         1 CLA     -0.437200
     37 O2D        77.4175   55.1799   35.4820 o1         1 CLA     -0.357600
     38 C3         83.8694   54.3956   34.7563 c5         1 CLA      0.031200
     39 C3A        80.5460   59.5975   36.5724 a1         1 CLA      0.166800
     40 C3B        79.3748   62.2664   42.0305 cb         1 CLA      0.035000
     41 C3C        73.8175   59.7627   42.1571 cb         1 CLA     -0.089900
     42 C3D        74.8738   57.5825   36.6070 cb         1 CLA     -0.035900
     43 C4         82.9691   53.1568   34.8238 a3         1 CLA     -0.053300
     44 C4A        79.6725   60.2547   37.6296 ac         1 CLA      0.001800
     45 C4B        78.1977   61.6136   41.5548 cn         1 CLA     -0.020900
     46 C4C        74.4134   59.6304   40.8854 cr         1 CLA     -0.044400
     47 C4D        75.9736   58.3038   37.0697 c6         1 CLA     -0.046000
     48 C5         85.3191   54.2547   34.8053 a2         1 CLA     -0.070400
     49 C6         86.1879   55.3136   35.5688 a2         1 CLA      0.043900
     50 C7         85.8423   55.5188   37.0173 a2         1 CLA     -0.150000
     51 C8         86.5883   56.6379   37.8578 a1         1 CLA      0.064200
     52 C9         88.0308   56.9168   37.3361 a3         1 CLA     -0.259300
     53 C10        86.5109   56.4158   39.4207 a2         1 CLA     -0.071900
     54 C11        86.8809   57.6495   40.2727 a2         1 CLA      0.014500
     55 C12        86.5693   57.3673   41.7646 a2         1 CLA     -0.112100
     56 C13        86.4415   58.6485   42.6277 a1         1 CLA      0.089200
     57 C14        87.7140   59.5406   42.5813 a3         1 CLA     -0.239100
     58 C15        86.2210   58.1793   44.0629 a2         1 CLA     -0.102200
     59 C16        86.0270   59.2893   45.1717 a2         1 CLA      0.023900
     60 C17        85.7145   58.5317   46.5113 a2         1 CLA     -0.105700
     61 C18        85.6788   59.5104   47.7588 a1         1 CLA      0.206800
     62 C19        84.8261   60.7583   47.4613 a3         1 CLA     -0.280100
     63 C20        85.3471   58.7211   49.0641 a3         1 CLA     -0.280100
     64 NC         75.5705   60.2772   40.7371 nx         1 CLA     -0.309200
     65 MG         76.9967   60.2397   39.1432 mg         1 CLA      0.895000
     66 HMD3       72.4806   56.5079   38.7259 dc         1 CLA      0.064300
     67 HMD2       71.8227   57.5717   37.4041 dc         1 CLA      0.064300
     68 HMD1       72.5954   56.0851   36.8564 dc         1 CLA      0.064300
     69 HMC3       75.2925   60.8142   44.8482 dc         1 CLA      0.052100
     70 HMC2       75.0987   62.4472   44.1697 dc         1 CLA      0.052100
     71 HMC1       73.6623   61.3696   44.5320 dc         1 CLA      0.052100
     72 HMB3       81.9836   63.4198   41.5937 dc         1 CLA      0.063600
     73 HMB2       82.4438   61.8070   41.0884 dc         1 CLA      0.063600
     74 HMB1       81.9112   63.1632   39.9176 dc         1 CLA      0.063600
     75 HMA3       81.4416   57.9884   37.7835 dc         1 CLA      0.058300
     76 HMA2       82.2360   58.4061   36.2245 dc         1 CLA      0.058300
     77 HMA1       82.4129   59.3423   37.8113 dc         1 CLA      0.058300
     78 HED3       77.9401   53.1428   35.5906 dc         1 CLA      0.079300
     79 HED2       78.3483   53.8375   34.0604 dc         1 CLA      0.079300
     80 HED1       79.3660   54.3730   35.4719 dc         1 CLA      0.079300
     81 HBC3       71.8175   57.4270   43.5296 dc         1 CLA      0.016300
     82 HBC2       72.1383   57.3416   41.7716 dc         1 CLA      0.016300
     83 HBC1       73.5238   57.2947   42.9658 dc         1 CLA      0.016300
     84 HBB2       80.6024   63.0466   45.1885 da         1 CLA      0.183000
     85 HBB1       81.5973   62.1597   43.9062 da         1 CLA      0.183000
     86 HBA2       80.5912   59.8687   32.3955 dc         1 CLA      0.029400
     87 HBA1       81.6434   59.8577   33.7546 dc         1 CLA      0.029400
     88 HAC2       72.1760   59.6706   43.5616 dc         1 CLA      0.029300
     89 HAC1       71.6274   59.4777   42.0681 dc         1 CLA      0.029300
     90 HAA2       78.7093   58.9875   33.7143 dc         1 CLA      0.028700
     91 HAA1       79.1392   60.5188   34.3223 dc         1 CLA      0.028700
     92 H203       84.3608   58.2038   48.9798 dc         1 CLA      0.065600
     93 H202       86.0946   58.0069   49.2063 dc         1 CLA      0.065600
     94 H201       85.2949   59.5791   49.8002 dc         1 CLA      0.065600
     95 H193       84.7438   61.3497   48.4169 dc         1 CLA      0.065600
     96 H192       85.2004   61.4159   46.7061 dc         1 CLA      0.065600
     97 H191       83.8079   60.3848   47.2079 dc         1 CLA      0.065600
     98 H172       84.7508   58.0287   46.2913 dc         1 CLA      0.027600
     99 H171       86.4021   57.7781   46.7512 dc         1 CLA      0.027600
    100 H162       86.9490   59.9486   45.2727 dc         1 CLA      0.002900
    101 H161       85.2041   59.9266   44.8848 dc         1 CLA      0.002900
    102 H152       85.4238   57.4327   44.0442 dc         1 CLA      0.029100
    103 H151       87.0806   57.5997   44.3846 dc         1 CLA      0.029100
    104 H143       87.6062   60.5375   43.0991 dc         1 CLA      0.063600
    105 H142       88.5360   58.9764   43.1438 dc         1 CLA      0.063600
    106 H141       88.1012   59.6377   41.5637 dc         1 CLA      0.063600
    107 H122       85.6366   56.7364   41.7875 dc         1 CLA      0.032500
    108 H121       87.4292   56.8080   42.0491 dc         1 CLA      0.032500
    109 H112       87.9413   57.8591   40.1366 dc         1 CLA      0.006600
    110 H111       86.3324   58.5232   39.9972 dc         1 CLA      0.006600
    111 H102       85.4580   56.3101   39.6309 dc         1 CLA      0.024100
    112 H101       87.0312   55.5603   39.7259 dc         1 CLA      0.024100
    113 HHD        73.0395   58.3533   40.1141 da         1 CLA      0.174300
    114 HHC        77.1684   61.8900   43.2997 da         1 CLA      0.136800
    115 HHB        81.3068   61.4009   38.3655 da         1 CLA      0.138300
    116 HBD        76.7163   58.0492   34.2127 dc         1 CLA      0.107700
    117 HAB        78.7962   63.5290   43.7495 da         1 CLA      0.155200
    118 H93        88.0453   57.3463   36.3195 dc         1 CLA      0.069500
    119 H92        88.5605   57.6248   37.9707 dc         1 CLA      0.069500
    120 H91        88.5628   55.9554   37.2210 dc         1 CLA      0.069500
    121 H8         86.0839   57.6005   37.7088 dc         1 CLA      0.029300
    122 H72        84.8475   55.7260   37.0482 dc         1 CLA      0.044400
    123 H71        85.9381   54.5296   37.4716 dc         1 CLA      0.044400
    124 H62        87.1827   55.0844   35.4464 dc         1 CLA      0.015600
    125 H61        86.0389   56.1945   34.9874 dc         1 CLA      0.015600
    126 H52        85.5031   53.2248   35.2444 dc         1 CLA      0.033200
    127 H51        85.7137   54.1008   33.8104 dc         1 CLA      0.033200
    128 H43        83.0850   52.5869   35.7971 dc         1 CLA      0.037000
    129 H42        81.9420   53.3679   34.5606 dc         1 CLA      0.037000
    130 H41        83.4248   52.5793   34.0468 dc         1 CLA      0.037000
    131 H3A        81.0597   60.3410   36.0754 dc         1 CLA      0.041100
    132 H2A        79.9151   57.7753   35.5774 dc         1 CLA      0.083100
    133 H2         83.0229   56.2163   35.5928 da         1 CLA      0.180900
    134 H18        86.6503   59.8540   47.8234 dc         1 CLA     -0.003900
    135 H13        85.5690   59.2211   42.2887 dc         1 CLA      0.019700
    136 H12        82.3891   55.6118   32.8376 dc         1 CLA      0.120400
    137 H11        83.7898   56.7276   32.7682 dc         1 CLA      0.120400
    138 C1         69.0026   61.5820   49.6348 Z1         2 LUT      0.509236
    139 C2         67.5902   61.3307   50.1445 Z2         2 LUT     -0.434695
    140 C3         66.9324   62.4930   50.8647 Z3         2 LUT      0.437453
    141 O3         67.4000   62.4672   52.2484 S1         2 LUT     -0.547129
    142 C4         67.2359   63.7948   50.0575 Z4         2 LUT     -0.468603
    143 C5         67.8885   63.6185   48.7266 Z5         2 LUT      0.279246
    144 C6         68.8574   62.6334   48.4696 Z6         2 LUT     -0.305473
    145 C7         69.2059   62.2959   47.0921 Z7         2 LUT      0.069402
    146 C8         69.9900   63.0949   46.3265 Z8         2 LUT     -0.191631
    147 C9         70.6505   62.7253   45.0627 Z9         2 LUT      0.196698
    148 C10        71.5592   63.5561   44.5633 Y1         2 LUT     -0.208611
    149 C11        72.2214   63.6223   43.3238 Y2         2 LUT      0.030784
    150 C12        73.4359   64.2620   43.2784 Y3         2 LUT     -0.220316
    151 C13        74.3231   64.2299   42.0921 Y4         2 LUT      0.215937
    152 C14        75.5993   64.7879   42.2612 Y5         2 LUT     -0.185793
    153 C15        76.7429   64.8711   41.3857 Y6         2 LUT     -0.057835
    154 C16        69.4640   60.1336   49.3316 Y7         2 LUT     -0.405615
    155 C17        69.9635   62.1855   50.7169 Y7         2 LUT     -0.405615
    156 C18        67.2249   64.5427   47.7097 Y9         2 LUT     -0.369639
    157 C19        70.0700   61.6191   44.2071 W1         2 LUT     -0.333362
    158 C20        73.9247   63.5253   40.7528 W2         2 LUT     -0.323439
    159 C21        88.3819   66.4129   35.3709 Z1         2 LUT      0.406104
    160 C22        89.2400   66.1399   34.1131 Z2         2 LUT     -0.404965
    161 C23        89.0940   67.1475   33.0067 Z3         2 LUT      0.391255
    162 O23        89.9003   66.7243   31.8591 S1         2 LUT     -0.528210
    163 C24        87.7435   67.6361   32.7776 W6         2 LUT     -0.258361
    164 C25        86.6940   67.3990   33.5921 Z5         2 LUT      0.133546
    165 C26        86.8416   66.6163   34.8828 W8         2 LUT     -0.147008
    166 C27        85.9856   67.2198   36.0318 Z7         2 LUT      0.023843
    167 C28        84.6986   66.8027   36.4022 Z8         2 LUT     -0.216987
    168 C29        83.9413   67.3088   37.5802 Z9         2 LUT      0.206524
    169 C30        82.8562   66.5930   37.9910 Y1         2 LUT     -0.215556
    170 C31        82.0477   66.8246   39.1101 Y2         2 LUT      0.025142
    171 C32        80.9374   66.0830   39.3960 Y3         2 LUT     -0.212209
    172 C33        80.1213   66.2285   40.6189 Y4         2 LUT      0.240937
    173 C34        78.8800   65.5677   40.6364 Y5         2 LUT     -0.218862
    174 C35        77.8464   65.6157   41.5832 Y6         2 LUT     -0.023547
    175 C36        89.1773   67.5356   36.0844 Y7         2 LUT     -0.393485
    176 C37        88.3363   65.0886   36.2116 Y7         2 LUT     -0.393485
    177 C38        85.3780   67.9492   33.2445 Y9         2 LUT     -0.387526
    178 C39        84.4424   68.5465   38.2936 W1         2 LUT     -0.322618
    179 C40        80.5706   67.2437   41.5969 W2         2 LUT     -0.358472
    180 H403       80.4408   68.2540   41.2370 R7         2 LUT      0.097720
    181 H402       80.0777   67.3377   42.5949 R7         2 LUT      0.097720
    182 H401       81.6176   67.0512   41.9911 R7         2 LUT      0.097720
    183 H393       85.0458   68.3278   39.2428 R4         2 LUT      0.082505
    184 H392       85.0505   69.1602   37.6010 R4         2 LUT      0.082505
    185 H391       83.6043   69.2245   38.6163 R4         2 LUT      0.082505
    186 H383       84.6303   67.2538   33.5185 R1         2 LUT      0.104030
    187 H382       85.1651   68.8865   33.8885 R1         2 LUT      0.104030
    188 H381       85.3349   68.1573   32.1946 R1         2 LUT      0.104030
    189 H373       87.8624   64.2859   35.6890 T4         2 LUT      0.089537
    190 H372       89.3536   64.6846   36.4673 T4         2 LUT      0.089537
    191 H371       87.6826   65.0828   37.0676 T4         2 LUT      0.089537
    192 H363       90.2361   67.4130   36.1769 T4         2 LUT      0.089537
    193 H362       89.0505   68.4275   35.4519 T4         2 LUT      0.089537
    194 H361       88.7729   67.7806   37.0682 T4         2 LUT      0.089537
    195 H222       90.3021   66.0428   34.3326 U2         2 LUT      0.127376
    196 H221       88.9094   65.2094   33.6479 U2         2 LUT      0.127376
    197 H203       73.7637   62.4617   40.9448 R7         2 LUT      0.087068
    198 H202       72.9218   63.8672   40.4729 R7         2 LUT      0.087068
    199 H201       74.5528   63.6193   39.9243 R7         2 LUT      0.087068
    200 H193       70.6265   61.5311   43.2695 R4         2 LUT      0.089716
    201 H192       70.2391   60.6554   44.7204 R4         2 LUT      0.089716
    202 H191       69.0552   61.8157   44.0496 R4         2 LUT      0.089716
    203 H183       67.9813   65.2947   47.3245 R1         2 LUT      0.094572
    204 H182       66.8670   64.0651   46.7540 R1         2 LUT      0.094572
    205 H181       66.5074   65.1069   48.1934 R1         2 LUT      0.094572
    206 H173       70.9411   62.3044   50.2744 T4         2 LUT      0.093752
    207 H172       69.7419   63.2239   51.0717 T4         2 LUT      0.093752
    208 H171       70.0862   61.6383   51.6264 T4         2 LUT      0.093752
    209 H163       68.9041   59.6737   48.4957 T4         2 LUT      0.093752
    210 H162       70.4757   60.1542   48.9448 T4         2 LUT      0.093752
    211 H161       69.4486   59.3756   50.1601 T4         2 LUT      0.093752
    212 HO3        66.9447   63.1420   52.7368 Q1         2 LUT      0.300121
    213 H8         70.3913   63.9447   46.8647 U7         2 LUT      0.080784
    214 H7         68.9322   61.3282   46.7220 U6         2 LUT      0.042190
    215 H42        66.2460   64.1348   49.9548 U5         2 LUT      0.145166
    216 H41        67.8346   64.3763   50.7037 U5         2 LUT      0.145166
    217 H35        77.9185   66.2748   42.4601 T3         2 LUT      0.077919
    218 H34        78.6795   65.1237   39.7546 T2         2 LUT      0.073626
    219 H32        80.6775   65.3920   38.5858 T1         2 LUT      0.092510
    220 H31        82.2890   67.6100   39.8276 U9         2 LUT      0.070048
    221 H30        82.6124   65.7415   37.3753 U8         2 LUT      0.085442
    222 H3         65.8572   62.2282   50.9068 U3         2 LUT     -0.031596
    223 H28        84.4019   65.8969   35.8382 U7         2 LUT      0.084728
    224 H27        86.4475   67.9973   36.6353 U6         2 LUT      0.087291
    225 H26        86.4775   65.6533   34.5978 Q6         2 LUT      0.075325
    226 H24        87.4438   68.1888   31.9015 Q5         2 LUT      0.094482
    227 H23        89.5049   68.0717   33.4172 U3         2 LUT     -0.024869
    228 H22        66.9126   61.1074   49.2875 U2         2 LUT      0.127376
    229 H21        67.5934   60.4627   50.8079 U2         2 LUT      0.127376
    230 H15        76.7540   64.2256   40.5004 T3         2 LUT      0.093200
    231 H14        75.7661   65.2123   43.2230 T2         2 LUT      0.068865
    232 H12        73.8134   64.6350   44.2550 T1         2 LUT      0.095507
    233 H11        71.9656   63.0772   42.4185 U9         2 LUT      0.068930
    234 H10        71.7394   64.3893   45.2534 U8         2 LUT      0.083911
    235 H1         89.4293   66.2988   31.1603 Q1         2 LUT      0.297311
@<TRIPOS>BOND
    1     6     1 1
    2     7     2 1
    3     8     3 1
    4     9     4 1
    5    11     4 1
    6    12     6 1
    7    13     9 1
    8    16     9 1
    9    25     5 1
   10    25    16 1
   11    26    10 1
   12    26    17 1
   13    27    18 1
   14    28    14 1
   15    28    19 1
   16    29    12 1
   17    30    13 1
   18    31    24 1
   19    32     1 1
   20    32    25 1
   21    33    21 1
   22    33    26 1
   23    34    22 1
   24    34    27 1
   25    35    23 1
   26    35    28 1
   27    36    12 1
   28    36    24 1
   29    37    13 1
   30    37    15 1
   31    38    31 1
   32    39    20 1
   33    39    32 1
   34    40     2 1
   35    40    33 1
   36    41     3 1
   37    41    34 1
   38    42     4 1
   39    42    35 1
   40    43    38 1
   41    44     5 1
   42    44    17 1
   43    44    39 1
   44    45    10 1
   45    45    18 1
   46    45    40 1
   47    46    19 1
   48    46    41 1
   49    47    14 1
   50    47    16 1
   51    47    42 1
   52    48    38 1
   53    49    48 1
   54    50    49 1
   55    51    50 1
   56    52    51 1
   57    53    51 1
   58    54    53 1
   59    55    54 1
   60    56    55 1
   61    57    56 1
   62    58    56 1
   63    59    58 1
   64    60    59 1
   65    61    60 1
   66    62    61 1
   67    63    61 1
   68    64    27 1
   69    64    46 1
   70    65     5 1
   71    65    10 1
   72    65    64 1
   73    65    14 1
   74    66    23 1
   75    67    23 1
   76    68    23 1
   77    69    22 1
   78    70    22 1
   79    71    22 1
   80    72    21 1
   81    73    21 1
   82    74    21 1
   83    75    20 1
   84    76    20 1
   85    77    20 1
   86    78    15 1
   87    79    15 1
   88    80    15 1
   89    81     8 1
   90    82     8 1
   91    83     8 1
   92    84     7 1
   93    85     7 1
   94    86     6 1
   95    87     6 1
   96    88     3 1
   97    89     3 1
   98    90     1 1
   99    91     1 1
  100    92    63 1
  101    93    63 1
  102    94    63 1
  103    95    62 1
  104    96    62 1
  105    97    62 1
  106    98    60 1
  107    99    60 1
  108   100    59 1
  109   101    59 1
  110   102    58 1
  111   103    58 1
  112   104    57 1
  113   105    57 1
  114   106    57 1
  115   107    55 1
  116   108    55 1
  117   109    54 1
  118   110    54 1
  119   111    53 1
  120   112    53 1
  121   113    19 1
  122   114    18 1
  123   115    17 1
  124   116     9 1
  125   117     2 1
  126   118    52 1
  127   119    52 1
  128   120    52 1
  129   121    51 1
  130   122    50 1
  131   123    50 1
  132   124    49 1
  133   125    49 1
  134   126    48 1
  135   127    48 1
  136   128    43 1
  137   129    43 1
  138   130    43 1
  139   131    39 1
  140   132    32 1
  141   133    31 1
  142   134    61 1
  143   135    56 1
  144   136    24 1
  145   137    24 1
  146   139   138 1
  147   140   139 1
  148   141   140 1
  149   142   140 1
  150   143   142 1
  151   144   138 1
  152   144   143 1
  153   145   144 1
  154   146   145 1
  155   147   146 1
  156   148   147 1
  157   149   148 1
  158   150   149 1
  159   151   150 1
  160   152   151 1
  161   153   152 1
  162   154   138 1
  163   155   138 1
  164   156   143 1
  165   157   147 1
  166   158   151 1
  167   160   159 1
  168   161   160 1
  169   162   161 1
  170   163   161 1
  171   164   163 1
  172   165   159 1
  173   165   164 1
  174   166   165 1
  175   167   166 1
  176   168   167 1
  177   169   168 1
  178   170   169 1
  179   171   170 1
  180   172   171 1
  181   173   172 1
  182   174   153 1
  183   174   173 1
  184   175   159 1
  185   176   159 1
  186   177   164 1
  187   178   168 1
  188   179   172 1
  189   180   179 1
  190   181   179 1
  191   182   179 1
  192   183   178 1
  193   184   178 1
  194   185   178 1
  195   186   177 1
  196   187   177 1
  197   188   177 1
  198   189   176 1
  199   190   176 1
  200   191   176 1
  201   192   175 1
  202   193   175 1
  203   194   175 1
  204   195   160 1
  205   196   160 1
  206   197   158 1
  207   198   158 1
  208   199   158 1
  209   200   157 1
  210   201   157 1
  211   202   157 1
  212   203   156 1
  213   204   156 1
  214   205   156 1
  215   206   155 1
  216   207   155 1
  217   208   155 1
  218   209   154 1
  219   210   154 1
  220   211   154 1
  221   212   141 1
  222   213   146 1
  223   214   145 1
  224   215   142 1
  225   216   142 1
  226   217   174 1
  227   218   173 1
  228   219   171 1
  229   220   170 1
  230   221   169 1
  231   222   140 1
  232   223   167 1
  233   224   166 1
  234   225   165 1
  235   226   163 1
  236   227   161 1
  237   228   139 1
  238   229   139 1
  239   230   153 1
  240   231   152 1
  241   232   150 1
  242   233   149 1
  243   234   148 1
  244   235   162 1
  245   65    153 1
  246   65    174 1
@<TRIPOS>SUBSTRUCTURE
      1 CLA               1 ****               0 ****  **** 
      2 LUT             138 ****               0 ****  **** 
