@<TRIPOS>MOLECULE
Cpptraj generated mol2 file.
  235   246     2     0     0
SMALL
USER_CHARGES


@<TRIPOS>ATOM
      1 CAA        80.5351   58.3807   34.2461 a2         1 CLA     -0.055900
      2 CAB        79.2608   62.1478   43.1194 c8         1 CLA     -0.148500
      3 CAC        72.9675   57.3347   42.1432 a2         1 CLA     -0.012600
      4 CAD        76.3742   55.6749   34.9076 ck         1 CLA      0.398800
      5 NA         79.2383   58.4985   37.5787 ns         1 CLA     -0.225500
      6 CBA        81.8487   58.4663   33.5120 a2         1 CLA     -0.135000
      7 CBB        80.3264   62.3224   43.9129 c0         1 CLA     -0.395200
      8 CBC        73.0798   55.8299   42.3108 a3         1 CLA     -0.037700
      9 CBD        77.7555   56.3320   34.7006 a1         1 CLA     -0.053900
     10 NB         78.7029   59.9746   40.2340 nm         1 CLA     -0.295700
     11 OBD        75.8283   54.9636   34.1424 o2         1 CLA     -0.494600
     12 CGA        82.4855   57.1583   33.0379 c4         1 CLA      0.827000
     13 CGD        78.7754   55.2322   34.4992 c4         1 CLA      0.655300
     14 ND         76.5130   57.6032   37.9292 nm         1 CLA     -0.291600
     15 CED        79.5646   53.0972   35.1464 a3         1 CLA      0.005400
     16 CHA        78.0788   57.1701   35.9782 cs         1 CLA     -0.123800
     17 CHB        80.7409   59.9766   38.7627 aa         1 CLA     -0.291900
     18 CHC        77.1799   60.1633   42.2161 aa         1 CLA     -0.090400
     19 CHD        74.5220   57.1470   39.3898 aa         1 CLA     -0.052000
     20 CMA        82.7454   58.0166   37.1276 a3         1 CLA     -0.230700
     21 CMB        81.6826   62.0398   40.8902 a3         1 CLA     -0.180800
     22 CMC        74.5994   59.4863   44.0083 a3         1 CLA     -0.134000
     23 CMD        73.6233   55.2881   37.0192 a3         1 CLA     -0.141100
     24 C1         83.6599   55.2469   33.7172 a2         1 CLA      0.023000
     25 C1A        79.2817   57.7689   36.4273 ac         1 CLA     -0.015100
     26 C1B        79.9558   60.3818   39.9105 cr         1 CLA      0.054700
     27 C1C        76.1721   59.3053   41.8426 cn         1 CLA     -0.005600
     28 C1D        75.2266   56.9646   38.2664 ap         1 CLA     -0.047300
     29 O1A        82.4342   56.7750   31.8431 o2         1 CLA     -0.610800
     30 O1D        79.7777   55.4006   33.8168 o2         1 CLA     -0.558200
     31 C2         84.4418   54.9131   35.0380 c8         1 CLA     -0.325100
     32 C2A        80.5925   57.7631   35.6778 a1         1 CLA      0.098600
     33 C2B        80.3465   61.3510   40.9204 cb         1 CLA      0.088500
     34 C2C        75.0233   58.9584   42.5971 cb         1 CLA      0.053700
     35 C2D        74.8190   56.1987   37.0814 cb         1 CLA      0.058900
     36 O2A        83.0781   56.5188   34.0698 o1         1 CLA     -0.437200
     37 O2D        78.6325   54.1672   35.3077 o1         1 CLA     -0.357600
     38 C3         85.6964   54.4147   35.1061 c5         1 CLA      0.031200
     39 C3A        81.3800   58.6365   36.6267 a1         1 CLA      0.166800
     40 C3B        79.3127   61.4058   41.9017 cb         1 CLA      0.035000
     41 C3C        74.3046   57.9864   41.8095 cb         1 CLA     -0.089900
     42 C3D        75.8998   56.2488   36.1768 cb         1 CLA     -0.035900
     43 C4         85.9964   52.9109   35.3430 a3         1 CLA     -0.053300
     44 C4A        80.4311   59.1371   37.7030 ac         1 CLA      0.001800
     45 C4B        78.3325   60.4716   41.4674 cn         1 CLA     -0.020900
     46 C4C        74.9579   57.8993   40.5279 cr         1 CLA     -0.044400
     47 C4D        76.8656   57.0610   36.7327 c6         1 CLA     -0.046000
     48 C5         86.8929   55.3483   35.0865 a2         1 CLA     -0.070400
     49 C6         86.8329   56.5094   36.1417 a2         1 CLA      0.043900
     50 C7         87.0244   55.9760   37.6611 a2         1 CLA     -0.150000
     51 C8         87.2110   57.1692   38.6835 a1         1 CLA      0.064200
     52 C9         88.5111   57.9719   38.4964 a3         1 CLA     -0.259300
     53 C10        86.9878   56.5421   40.1576 a2         1 CLA     -0.071900
     54 C11        87.1960   57.4022   41.3909 a2         1 CLA      0.014500
     55 C12        87.0041   56.6098   42.7330 a2         1 CLA     -0.112100
     56 C13        87.6329   57.3708   44.0399 a1         1 CLA      0.089200
     57 C14        89.2424   57.3814   44.0503 a3         1 CLA     -0.239100
     58 C15        87.1208   56.7517   45.3468 a2         1 CLA     -0.102200
     59 C16        85.6500   57.0353   45.6036 a2         1 CLA      0.023900
     60 C17        85.3530   58.4346   46.1952 a2         1 CLA     -0.105700
     61 C18        83.9392   58.6416   46.7946 a1         1 CLA      0.206800
     62 C19        83.7883   58.0660   48.1830 a3         1 CLA     -0.280100
     63 C20        83.5570   60.0872   46.8224 a3         1 CLA     -0.280100
     64 NC         76.1234   58.6062   40.6152 nx         1 CLA     -0.309200
     65 MG         77.5579   58.8254   39.0628 mg         1 CLA      0.895000
     66 HMD3       73.9160   54.3935   36.3440 dc         1 CLA      0.064300
     67 HMD2       73.3604   54.7628   37.9093 dc         1 CLA      0.064300
     68 HMD1       72.6870   55.7835   36.7225 dc         1 CLA      0.064300
     69 HMC3       75.0364   60.4752   44.1936 dc         1 CLA      0.052100
     70 HMC2       73.5258   59.5398   44.0355 dc         1 CLA      0.052100
     71 HMC1       74.9793   58.7990   44.7795 dc         1 CLA      0.052100
     72 HMB3       82.3709   61.5871   41.6395 dc         1 CLA      0.063600
     73 HMB2       82.0379   61.9664   39.8053 dc         1 CLA      0.063600
     74 HMB1       81.4776   63.0644   41.1849 dc         1 CLA      0.063600
     75 HMA3       82.4954   57.2493   37.8821 dc         1 CLA      0.058300
     76 HMA2       83.3624   57.5976   36.3374 dc         1 CLA      0.058300
     77 HMA1       83.3440   58.8290   37.5851 dc         1 CLA      0.058300
     78 HED3       79.5471   52.8362   34.1015 dc         1 CLA      0.079300
     79 HED2       80.5923   53.3041   35.4290 dc         1 CLA      0.079300
     80 HED1       79.2179   52.3017   35.7386 dc         1 CLA      0.079300
     81 HBC3       72.2418   55.3197   42.7162 dc         1 CLA      0.016300
     82 HBC2       73.4135   55.2894   41.3984 dc         1 CLA      0.016300
     83 HBC1       73.9297   55.7208   42.9726 dc         1 CLA      0.016300
     84 HBB2       80.1954   62.9101   44.8412 da         1 CLA      0.183000
     85 HBB1       81.2573   61.8099   43.6320 da         1 CLA      0.183000
     86 HBA2       81.4588   58.9899   32.5917 dc         1 CLA      0.029400
     87 HBA1       82.6002   59.0043   34.0825 dc         1 CLA      0.029400
     88 HAC2       72.7656   57.7514   43.0625 dc         1 CLA      0.029300
     89 HAC1       72.2116   57.6648   41.4303 dc         1 CLA      0.029300
     90 HAA2       79.8882   57.9152   33.5551 dc         1 CLA      0.028700
     91 HAA1       80.1779   59.3456   34.4806 dc         1 CLA      0.028700
     92 H203       83.9778   60.5466   45.9051 dc         1 CLA      0.065600
     93 H202       82.4684   60.1298   46.7458 dc         1 CLA      0.065600
     94 H201       83.9873   60.5709   47.7601 dc         1 CLA      0.065600
     95 H193       82.7181   58.1513   48.5049 dc         1 CLA      0.065600
     96 H192       83.9976   57.0351   48.1074 dc         1 CLA      0.065600
     97 H191       84.4634   58.5749   48.8808 dc         1 CLA      0.065600
     98 H172       86.0619   58.6882   46.9663 dc         1 CLA      0.027600
     99 H171       85.4743   59.1200   45.3845 dc         1 CLA      0.027600
    100 H162       85.0537   57.0047   44.7419 dc         1 CLA      0.002900
    101 H161       85.3262   56.3790   46.3326 dc         1 CLA      0.002900
    102 H152       87.1884   55.6587   45.1325 dc         1 CLA      0.029100
    103 H151       87.7432   57.0602   46.2143 dc         1 CLA      0.029100
    104 H143       89.7291   56.4395   44.2695 dc         1 CLA      0.063600
    105 H142       89.5949   57.7715   43.1342 dc         1 CLA      0.063600
    106 H141       89.6370   58.1066   44.7416 dc         1 CLA      0.063600
    107 H122       85.9205   56.4216   42.8062 dc         1 CLA      0.032500
    108 H121       87.4814   55.6320   42.7052 dc         1 CLA      0.032500
    109 H112       88.1529   57.9060   41.3069 dc         1 CLA      0.006600
    110 H111       86.4923   58.1943   41.3679 dc         1 CLA      0.006600
    111 H102       85.9933   56.1834   40.2622 dc         1 CLA      0.024100
    112 H101       87.7389   55.7658   40.1796 dc         1 CLA      0.024100
    113 HHD        73.5308   56.6532   39.5236 da         1 CLA      0.174300
    114 HHC        77.0181   60.6711   43.1310 da         1 CLA      0.136800
    115 HHB        81.7619   60.4063   38.6673 da         1 CLA      0.138300
    116 HBD        77.7372   56.8843   33.8064 dc         1 CLA      0.107700
    117 HAB        78.3506   62.4952   43.5885 da         1 CLA      0.155200
    118 H93        88.6801   58.1557   37.4653 dc         1 CLA      0.069500
    119 H92        88.2733   58.8326   39.0668 dc         1 CLA      0.069500
    120 H91        89.3730   57.4499   38.9043 dc         1 CLA      0.069500
    121 H8         86.3915   57.8723   38.4605 dc         1 CLA      0.029300
    122 H72        86.1635   55.3909   37.9333 dc         1 CLA      0.044400
    123 H71        87.9015   55.4062   37.6459 dc         1 CLA      0.044400
    124 H62        87.6999   57.1342   35.9333 dc         1 CLA      0.015600
    125 H61        85.9692   57.1069   35.9879 dc         1 CLA      0.015600
    126 H52        87.7452   54.7099   35.2228 dc         1 CLA      0.033200
    127 H51        86.9033   55.6779   33.9964 dc         1 CLA      0.033200
    128 H43        86.4841   52.7355   36.3211 dc         1 CLA      0.037000
    129 H42        85.0517   52.3997   35.2708 dc         1 CLA      0.037000
    130 H41        86.6259   52.5834   34.5287 dc         1 CLA      0.037000
    131 H3A        81.7069   59.5505   36.0665 dc         1 CLA      0.041100
    132 H2A        81.1285   56.8065   35.7650 dc         1 CLA      0.083100
    133 H2         83.9384   55.1842   35.9975 da         1 CLA      0.180900
    134 H18        83.2624   58.0242   46.1628 dc         1 CLA     -0.003900
    135 H13        87.2596   58.4267   44.0544 dc         1 CLA      0.019700
    136 H12        82.8857   54.5179   33.5623 dc         1 CLA      0.120400
    137 H11        84.3145   55.3860   32.8771 dc         1 CLA      0.120400
    138 C1         68.9858   61.4347   49.6200 Z1         2 LUT      0.509236
    139 C2         67.6154   61.3639   50.2231 Z2         2 LUT     -0.434695
    140 C3         66.7685   62.6599   50.3730 Z3         2 LUT      0.437453
    141 O3         66.6600   63.0650   51.7238 S1         2 LUT     -0.547129
    142 C4         67.2519   63.7878   49.4713 Z4         2 LUT     -0.468603
    143 C5         68.1394   63.4283   48.2842 Z5         2 LUT      0.279246
    144 C6         68.9764   62.3645   48.3473 Z6         2 LUT     -0.305473
    145 C7         69.4869   61.8505   46.9881 Z7         2 LUT      0.069402
    146 C8         70.4868   62.3273   46.1406 Z8         2 LUT     -0.191631
    147 C9         71.1971   61.7702   44.9622 Z9         2 LUT      0.196698
    148 C10        72.0415   62.6192   44.2347 Y1         2 LUT     -0.208611
    149 C11        72.8350   62.3712   43.0586 Y2         2 LUT      0.030784
    150 C12        73.8907   63.2849   42.7938 Y3         2 LUT     -0.220316
    151 C13        74.9854   63.2360   41.7714 Y4         2 LUT      0.215937
    152 C14        76.0430   64.0830   41.8516 Y5         2 LUT     -0.185793
    153 C15        77.1910   64.1205   41.0903 Y6         2 LUT     -0.057835
    154 C16        69.4451   59.9842   49.3340 Y7         2 LUT     -0.405615
    155 C17        69.9058   62.0994   50.6750 Y7         2 LUT     -0.405615
    156 C18        67.7481   64.2945   47.0854 Y9         2 LUT     -0.369639
    157 C19        70.8986   60.3220   44.4860 W1         2 LUT     -0.333362
    158 C20        74.6946   62.2970   40.5368 W2         2 LUT     -0.323439
    159 C21        88.7899   66.0255   35.6882 Z1         2 LUT      0.406104
    160 C22        89.5773   65.4314   34.5181 Z2         2 LUT     -0.404965
    161 C23        89.8170   66.3770   33.3886 Z3         2 LUT      0.391255
    162 O23        90.6879   65.6707   32.5072 S1         2 LUT     -0.528210
    163 C24        88.4225   67.0688   33.0350 W6         2 LUT     -0.258361
    164 C25        87.3783   67.2662   33.8658 Z5         2 LUT      0.133546
    165 C26        87.3219   66.4652   35.1880 W8         2 LUT     -0.147008
    166 C27        86.5399   67.2123   36.2866 Z7         2 LUT      0.023843
    167 C28        85.5118   66.6333   36.9377 Z8         2 LUT     -0.216987
    168 C29        84.7132   67.1588   38.0031 Z9         2 LUT      0.206524
    169 C30        83.5749   66.5054   38.3942 Y1         2 LUT     -0.215556
    170 C31        82.6000   66.6441   39.3845 Y2         2 LUT      0.025142
    171 C32        81.4688   65.9034   39.4958 Y3         2 LUT     -0.212209
    172 C33        80.6098   65.7551   40.6475 Y4         2 LUT      0.240937
    173 C34        79.6178   64.8111   40.5996 Y5         2 LUT     -0.218862
    174 C35        78.3819   64.8005   41.3703 Y6         2 LUT     -0.023547
    175 C36        89.6129   67.1630   36.3120 Y7         2 LUT     -0.393485
    176 C37        88.8278   64.9488   36.7870 Y7         2 LUT     -0.393485
    177 C38        86.0994   68.0488   33.5132 Y9         2 LUT     -0.387526
    178 C39        85.2835   68.3033   38.7370 W1         2 LUT     -0.322618
    179 C40        80.7933   66.8768   41.6797 W2         2 LUT     -0.358472
    180 H403       79.9347   67.0872   42.3345 R7         2 LUT      0.097720
    181 H402       81.5571   66.5385   42.3981 R7         2 LUT      0.097720
    182 H401       81.0468   67.8572   41.1860 R7         2 LUT      0.097720
    183 H393       85.7891   69.1036   38.1394 R4         2 LUT      0.082505
    184 H392       84.5799   68.7641   39.4789 R4         2 LUT      0.082505
    185 H391       86.1258   67.9588   39.2641 R4         2 LUT      0.082505
    186 H383       85.0903   67.6434   33.6626 R1         2 LUT      0.104030
    187 H382       86.1648   68.9812   34.1074 R1         2 LUT      0.104030
    188 H381       86.1740   68.3363   32.4006 R1         2 LUT      0.104030
    189 H373       89.8070   64.6790   37.2268 T4         2 LUT      0.089537
    190 H372       88.1960   65.2571   37.6067 T4         2 LUT      0.089537
    191 H371       88.4337   63.9725   36.4670 T4         2 LUT      0.089537
    192 H363       90.0135   68.0162   35.7763 T4         2 LUT      0.089537
    193 H362       89.1457   67.4935   37.1687 T4         2 LUT      0.089537
    194 H361       90.5717   66.7584   36.7384 T4         2 LUT      0.089537
    195 H222       90.4871   65.0816   34.9758 U2         2 LUT      0.127376
    196 H221       89.0179   64.6172   34.1501 U2         2 LUT      0.127376
    197 H203       75.3540   62.5888   39.7099 R7         2 LUT      0.087068
    198 H202       74.8246   61.2615   40.8351 R7         2 LUT      0.087068
    199 H201       73.7130   62.3580   40.1457 R7         2 LUT      0.087068
    200 H193       71.4675   59.8747   43.7491 R4         2 LUT      0.089716
    201 H192       71.0449   59.5982   45.2527 R4         2 LUT      0.089716
    202 H191       69.8646   60.3237   44.1602 R4         2 LUT      0.089716
    203 H183       68.3639   65.1540   46.9497 R1         2 LUT      0.094572
    204 H182       68.0715   63.6734   46.1764 R1         2 LUT      0.094572
    205 H181       66.7196   64.6119   46.9386 R1         2 LUT      0.094572
    206 H173       69.3911   62.8524   51.2576 T4         2 LUT      0.093752
    207 H172       70.3465   61.3615   51.3109 T4         2 LUT      0.093752
    208 H171       70.7763   62.5841   50.1661 T4         2 LUT      0.093752
    209 H163       70.5022   59.9557   49.0323 T4         2 LUT      0.093752
    210 H162       69.5635   59.4038   50.2687 T4         2 LUT      0.093752
    211 H161       68.8757   59.4307   48.5867 T4         2 LUT      0.093752
    212 HO3        65.8552   62.6646   52.0923 Q1         2 LUT      0.300121
    213 H8         70.8578   63.3416   46.4716 U7         2 LUT      0.080784
    214 H7         69.1261   60.8433   46.7908 U6         2 LUT      0.042190
    215 H42        66.3658   64.3658   49.1855 U5         2 LUT      0.145166
    216 H41        67.7636   64.5352   50.0015 U5         2 LUT      0.145166
    217 H35        78.3509   65.3158   42.3848 T3         2 LUT      0.077919
    218 H34        79.3862   64.2126   39.6744 T2         2 LUT      0.073626
    219 H32        81.2473   65.1476   38.7034 T1         2 LUT      0.092510
    220 H31        82.8575   67.3123   40.2266 U9         2 LUT      0.070048
    221 H30        83.2922   65.7285   37.7547 U8         2 LUT      0.085442
    222 H3         65.7494   62.2980   50.0109 U3         2 LUT     -0.031596
    223 H28        85.1996   65.7365   36.4809 U7         2 LUT      0.084728
    224 H27        86.8595   68.2380   36.5484 U6         2 LUT      0.087291
    225 H26        86.9458   65.4650   35.0199 Q6         2 LUT      0.075325
    226 H24        88.4539   67.6844   32.0499 Q5         2 LUT      0.094482
    227 H23        90.5281   67.1374   33.7746 U3         2 LUT     -0.024869
    228 H22        67.0645   60.8069   49.4176 U2         2 LUT      0.127376
    229 H21        67.5354   60.8427   51.1367 U2         2 LUT      0.127376
    230 H15        77.2721   63.5024   40.2532 T3         2 LUT      0.093200
    231 H14        75.9299   64.7928   42.6430 T2         2 LUT      0.068865
    232 H12        74.0571   64.0895   43.4733 T1         2 LUT      0.095507
    233 H11        72.7020   61.4737   42.4531 U9         2 LUT      0.068930
    234 H10        72.2616   63.5546   44.6861 U8         2 LUT      0.083911
    235 H1         90.2096   65.6606   31.7038 Q1         2 LUT      0.297311
@<TRIPOS>BOND
    1     6     1 1
    2     7     2 1
    3     8     3 1
    4     9     4 1
    5    11     4 1
    6    12     6 1
    7    13     9 1
    8    16     9 1
    9    25     5 1
   10    25    16 1
   11    26    10 1
   12    26    17 1
   13    27    18 1
   14    28    14 1
   15    28    19 1
   16    29    12 1
   17    30    13 1
   18    31    24 1
   19    32     1 1
   20    32    25 1
   21    33    21 1
   22    33    26 1
   23    34    22 1
   24    34    27 1
   25    35    23 1
   26    35    28 1
   27    36    12 1
   28    36    24 1
   29    37    13 1
   30    37    15 1
   31    38    31 1
   32    39    20 1
   33    39    32 1
   34    40     2 1
   35    40    33 1
   36    41     3 1
   37    41    34 1
   38    42     4 1
   39    42    35 1
   40    43    38 1
   41    44     5 1
   42    44    17 1
   43    44    39 1
   44    45    10 1
   45    45    18 1
   46    45    40 1
   47    46    19 1
   48    46    41 1
   49    47    14 1
   50    47    16 1
   51    47    42 1
   52    48    38 1
   53    49    48 1
   54    50    49 1
   55    51    50 1
   56    52    51 1
   57    53    51 1
   58    54    53 1
   59    55    54 1
   60    56    55 1
   61    57    56 1
   62    58    56 1
   63    59    58 1
   64    60    59 1
   65    61    60 1
   66    62    61 1
   67    63    61 1
   68    64    27 1
   69    64    46 1
   70    65     5 1
   71    65    10 1
   72    65    64 1
   73    65    14 1
   74    66    23 1
   75    67    23 1
   76    68    23 1
   77    69    22 1
   78    70    22 1
   79    71    22 1
   80    72    21 1
   81    73    21 1
   82    74    21 1
   83    75    20 1
   84    76    20 1
   85    77    20 1
   86    78    15 1
   87    79    15 1
   88    80    15 1
   89    81     8 1
   90    82     8 1
   91    83     8 1
   92    84     7 1
   93    85     7 1
   94    86     6 1
   95    87     6 1
   96    88     3 1
   97    89     3 1
   98    90     1 1
   99    91     1 1
  100    92    63 1
  101    93    63 1
  102    94    63 1
  103    95    62 1
  104    96    62 1
  105    97    62 1
  106    98    60 1
  107    99    60 1
  108   100    59 1
  109   101    59 1
  110   102    58 1
  111   103    58 1
  112   104    57 1
  113   105    57 1
  114   106    57 1
  115   107    55 1
  116   108    55 1
  117   109    54 1
  118   110    54 1
  119   111    53 1
  120   112    53 1
  121   113    19 1
  122   114    18 1
  123   115    17 1
  124   116     9 1
  125   117     2 1
  126   118    52 1
  127   119    52 1
  128   120    52 1
  129   121    51 1
  130   122    50 1
  131   123    50 1
  132   124    49 1
  133   125    49 1
  134   126    48 1
  135   127    48 1
  136   128    43 1
  137   129    43 1
  138   130    43 1
  139   131    39 1
  140   132    32 1
  141   133    31 1
  142   134    61 1
  143   135    56 1
  144   136    24 1
  145   137    24 1
  146   139   138 1
  147   140   139 1
  148   141   140 1
  149   142   140 1
  150   143   142 1
  151   144   138 1
  152   144   143 1
  153   145   144 1
  154   146   145 1
  155   147   146 1
  156   148   147 1
  157   149   148 1
  158   150   149 1
  159   151   150 1
  160   152   151 1
  161   153   152 1
  162   154   138 1
  163   155   138 1
  164   156   143 1
  165   157   147 1
  166   158   151 1
  167   160   159 1
  168   161   160 1
  169   162   161 1
  170   163   161 1
  171   164   163 1
  172   165   159 1
  173   165   164 1
  174   166   165 1
  175   167   166 1
  176   168   167 1
  177   169   168 1
  178   170   169 1
  179   171   170 1
  180   172   171 1
  181   173   172 1
  182   174   153 1
  183   174   173 1
  184   175   159 1
  185   176   159 1
  186   177   164 1
  187   178   168 1
  188   179   172 1
  189   180   179 1
  190   181   179 1
  191   182   179 1
  192   183   178 1
  193   184   178 1
  194   185   178 1
  195   186   177 1
  196   187   177 1
  197   188   177 1
  198   189   176 1
  199   190   176 1
  200   191   176 1
  201   192   175 1
  202   193   175 1
  203   194   175 1
  204   195   160 1
  205   196   160 1
  206   197   158 1
  207   198   158 1
  208   199   158 1
  209   200   157 1
  210   201   157 1
  211   202   157 1
  212   203   156 1
  213   204   156 1
  214   205   156 1
  215   206   155 1
  216   207   155 1
  217   208   155 1
  218   209   154 1
  219   210   154 1
  220   211   154 1
  221   212   141 1
  222   213   146 1
  223   214   145 1
  224   215   142 1
  225   216   142 1
  226   217   174 1
  227   218   173 1
  228   219   171 1
  229   220   170 1
  230   221   169 1
  231   222   140 1
  232   223   167 1
  233   224   166 1
  234   225   165 1
  235   226   163 1
  236   227   161 1
  237   228   139 1
  238   229   139 1
  239   230   153 1
  240   231   152 1
  241   232   150 1
  242   233   149 1
  243   234   148 1
  244   235   162 1
  245   65    153 1
  246   65    174 1
@<TRIPOS>SUBSTRUCTURE
      1 CLA               1 ****               0 ****  **** 
      2 LUT             138 ****               0 ****  **** 
