@<TRIPOS>MOLECULE
Cpptraj generated mol2 file.
  235   246     2     0     0
SMALL
USER_CHARGES


@<TRIPOS>ATOM
      1 CAA        77.5893   57.3965   33.4524 a2         1 CLA     -0.055900
      2 CAB        77.2800   61.6222   42.3458 c8         1 CLA     -0.148500
      3 CAC        70.7077   56.8536   42.0765 a2         1 CLA     -0.012600
      4 CAD        73.1951   55.0469   34.6513 ck         1 CLA      0.398800
      5 NA         76.4024   57.8810   36.8667 ns         1 CLA     -0.225500
      6 CBA        78.8838   57.2091   32.6432 a2         1 CLA     -0.135000
      7 CBB        76.2023   62.1992   42.9321 c0         1 CLA     -0.395200
      8 CBC        70.6788   55.3098   42.2139 a3         1 CLA     -0.037700
      9 CBD        74.7123   55.5803   34.3711 a1         1 CLA     -0.053900
     10 NB         76.2100   59.4888   39.4721 nm         1 CLA     -0.295700
     11 OBD        72.5303   54.3144   33.9427 o2         1 CLA     -0.494600
     12 CGA        79.6562   55.9554   32.3917 c4         1 CLA      0.827000
     13 CGD        75.5456   54.4071   34.0230 c4         1 CLA      0.655300
     14 ND         73.6302   57.1033   37.5188 nm         1 CLA     -0.291600
     15 CED        76.1255   52.2510   34.9796 a3         1 CLA      0.005400
     16 CHA        75.1358   56.4481   35.5446 cs         1 CLA     -0.123800
     17 CHB        78.1456   59.3990   37.8771 aa         1 CLA     -0.291900
     18 CHC        75.0148   59.4318   41.5925 aa         1 CLA     -0.090400
     19 CHD        71.8370   56.8517   39.1300 aa         1 CLA     -0.052000
     20 CMA        79.8497   57.5854   36.2758 a3         1 CLA     -0.230700
     21 CMB        79.4808   61.2943   40.0315 a3         1 CLA     -0.180800
     22 CMC        72.9102   58.8061   43.5763 a3         1 CLA     -0.134000
     23 CMD        70.4312   55.1243   36.8630 a3         1 CLA     -0.141100
     24 C1         80.5359   53.9943   33.5773 a2         1 CLA      0.023000
     25 C1A        76.3421   57.1425   35.7624 ac         1 CLA     -0.015100
     26 C1B        77.5074   59.8117   39.1022 cr         1 CLA      0.054700
     27 C1C        73.9750   58.5729   41.3137 cn         1 CLA     -0.005600
     28 C1D        72.3627   56.6346   37.8722 ap         1 CLA     -0.047300
     29 O1A        79.8224   55.4305   31.3158 o2         1 CLA     -0.610800
     30 O1D        76.2975   54.2273   33.1042 o2         1 CLA     -0.558200
     31 C2         81.0984   53.6529   34.9540 c8         1 CLA     -0.325100
     32 C2A        77.6406   57.0738   34.9195 a1         1 CLA      0.098600
     33 C2B        78.1003   60.6638   40.1231 cb         1 CLA      0.088500
     34 C2C        72.9128   58.2960   42.1899 cb         1 CLA      0.053700
     35 C2D        71.8151   55.7665   36.8076 cb         1 CLA      0.058900
     36 O2A        80.0940   55.4089   33.6238 o1         1 CLA     -0.437200
     37 O2D        75.3989   53.5252   35.0120 o1         1 CLA     -0.357600
     38 C3         82.0192   52.7455   35.1593 c5         1 CLA      0.031200
     39 C3A        78.5023   58.1590   35.7325 a1         1 CLA      0.166800
     40 C3B        77.1805   60.7894   41.1562 cb         1 CLA      0.035000
     41 C3C        71.9952   57.4341   41.5831 cb         1 CLA     -0.089900
     42 C3D        72.8444   55.7324   35.8935 cb         1 CLA     -0.035900
     43 C4         81.5380   51.2729   35.4178 a3         1 CLA     -0.053300
     44 C4A        77.6460   58.5131   36.8921 ac         1 CLA      0.001800
     45 C4B        76.1132   59.8463   40.7995 cn         1 CLA     -0.020900
     46 C4C        72.4818   57.4015   40.1893 cr         1 CLA     -0.044400
     47 C4D        73.9261   56.5143   36.3689 c6         1 CLA     -0.046000
     48 C5         83.4862   52.8544   34.8808 a2         1 CLA     -0.070400
     49 C6         84.3305   54.1089   35.0479 a2         1 CLA      0.043900
     50 C7         84.2899   54.5066   36.5593 a2         1 CLA     -0.150000
     51 C8         84.5229   56.0489   36.7059 a1         1 CLA      0.064200
     52 C9         85.9284   56.4267   36.2873 a3         1 CLA     -0.259300
     53 C10        84.2040   56.4532   38.1244 a2         1 CLA     -0.071900
     54 C11        82.8835   56.0642   38.7145 a2         1 CLA      0.014500
     55 C12        82.7832   56.6843   40.0878 a2         1 CLA     -0.112100
     56 C13        81.4496   56.5623   40.8259 a1         1 CLA      0.089200
     57 C14        80.4367   57.4599   40.1058 a3         1 CLA     -0.239100
     58 C15        81.5670   56.9119   42.4513 a2         1 CLA     -0.102200
     59 C16        81.8500   58.4030   42.7037 a2         1 CLA      0.023900
     60 C17        81.9163   58.6490   44.2182 a2         1 CLA     -0.105700
     61 C18        82.2484   60.1208   44.4693 a1         1 CLA      0.206800
     62 C19        81.0088   60.9546   44.7350 a3         1 CLA     -0.280100
     63 C20        83.2137   60.3749   45.6695 a3         1 CLA     -0.280100
     64 NC         73.7000   58.0820   40.0630 nx         1 CLA     -0.309200
     65 MG         74.9121   58.3016   38.3951 mg         1 CLA      0.895000
     66 HMD3       70.0879   55.0607   35.8627 dc         1 CLA      0.064300
     67 HMD2       70.4842   54.1146   37.2916 dc         1 CLA      0.064300
     68 HMD1       69.7682   55.7448   37.4457 dc         1 CLA      0.064300
     69 HMC3       72.0417   58.5591   44.2195 dc         1 CLA      0.052100
     70 HMC2       73.7373   58.3292   44.1015 dc         1 CLA      0.052100
     71 HMC1       73.0329   59.8904   43.4265 dc         1 CLA      0.052100
     72 HMB3       79.7952   61.6493   39.0629 dc         1 CLA      0.063600
     73 HMB2       79.3756   62.1860   40.6838 dc         1 CLA      0.063600
     74 HMB1       80.2757   60.6418   40.4026 dc         1 CLA      0.063600
     75 HMA3       80.3501   58.3910   36.8059 dc         1 CLA      0.058300
     76 HMA2       79.4967   56.8273   36.9814 dc         1 CLA      0.058300
     77 HMA1       80.4770   57.1872   35.4911 dc         1 CLA      0.058300
     78 HED3       76.4541   51.8153   35.9888 dc         1 CLA      0.079300
     79 HED2       75.4136   51.5257   34.4356 dc         1 CLA      0.079300
     80 HED1       77.0476   52.1777   34.3582 dc         1 CLA      0.079300
     81 HBC3       71.1271   54.9528   41.3151 dc         1 CLA      0.016300
     82 HBC2       71.3296   54.9967   42.9898 dc         1 CLA      0.016300
     83 HBC1       69.6759   54.9451   42.3742 dc         1 CLA      0.016300
     84 HBB2       76.3734   62.9058   43.7130 da         1 CLA      0.183000
     85 HBB1       75.1658   61.9074   42.7639 da         1 CLA      0.183000
     86 HBA2       78.6263   57.5519   31.6272 dc         1 CLA      0.029400
     87 HBA1       79.5841   57.8929   33.0508 dc         1 CLA      0.029400
     88 HAC2       70.4501   57.3986   43.0208 dc         1 CLA      0.029300
     89 HAC1       69.8447   57.0573   41.3848 dc         1 CLA      0.029300
     90 HAA2       76.9309   56.7498   33.0044 dc         1 CLA      0.028700
     91 HAA1       77.2352   58.3720   33.2280 dc         1 CLA      0.028700
     92 H203       82.9185   59.7767   46.4890 dc         1 CLA      0.065600
     93 H202       84.1882   60.0920   45.2110 dc         1 CLA      0.065600
     94 H201       83.1630   61.4179   45.9792 dc         1 CLA      0.065600
     95 H193       80.2745   60.8723   43.9624 dc         1 CLA      0.065600
     96 H192       80.4785   60.6295   45.6254 dc         1 CLA      0.065600
     97 H191       81.3503   62.0048   44.8686 dc         1 CLA      0.065600
     98 H172       80.9929   58.3768   44.7512 dc         1 CLA      0.027600
     99 H171       82.6780   58.0836   44.6485 dc         1 CLA      0.027600
    100 H162       82.8963   58.5352   42.3263 dc         1 CLA      0.002900
    101 H161       81.1620   59.1735   42.2806 dc         1 CLA      0.002900
    102 H152       80.6422   56.6199   42.9615 dc         1 CLA      0.029100
    103 H151       82.4002   56.3750   42.8694 dc         1 CLA      0.029100
    104 H143       80.9556   58.4485   39.7685 dc         1 CLA      0.063600
    105 H142       80.0973   57.0259   39.1631 dc         1 CLA      0.063600
    106 H141       79.6569   57.5324   40.8251 dc         1 CLA      0.063600
    107 H122       83.5652   56.2060   40.7374 dc         1 CLA      0.032500
    108 H121       83.0309   57.7511   40.0697 dc         1 CLA      0.032500
    109 H112       82.0155   56.3991   38.0999 dc         1 CLA      0.006600
    110 H111       82.6951   55.0859   38.9558 dc         1 CLA      0.006600
    111 H102       84.9621   56.0468   38.8161 dc         1 CLA      0.024100
    112 H101       84.1635   57.5003   38.1587 dc         1 CLA      0.024100
    113 HHD        70.8158   56.6468   39.3274 da         1 CLA      0.174300
    114 HHC        75.1702   59.7945   42.5583 da         1 CLA      0.136800
    115 HHB        79.1385   59.7626   37.7408 da         1 CLA      0.138300
    116 HBD        74.7372   56.2178   33.4913 dc         1 CLA      0.107700
    117 HAB        78.2671   61.8378   42.7675 da         1 CLA      0.155200
    118 H93        86.1262   57.5590   36.3947 dc         1 CLA      0.069500
    119 H92        86.5581   55.9257   36.9356 dc         1 CLA      0.069500
    120 H91        86.1204   56.1098   35.2487 dc         1 CLA      0.069500
    121 H8         83.8388   56.6503   36.0189 dc         1 CLA      0.029300
    122 H72        83.4706   54.0468   37.1896 dc         1 CLA      0.044400
    123 H71        85.1103   53.9247   37.0167 dc         1 CLA      0.044400
    124 H62        85.3366   53.8527   34.7816 dc         1 CLA      0.015600
    125 H61        83.9632   54.9053   34.4099 dc         1 CLA      0.015600
    126 H52        83.8901   52.0068   35.3864 dc         1 CLA      0.033200
    127 H51        83.6025   52.7159   33.8097 dc         1 CLA      0.033200
    128 H43        82.0362   50.9091   36.3821 dc         1 CLA      0.037000
    129 H42        80.4722   51.0607   35.3843 dc         1 CLA      0.037000
    130 H41        82.1075   50.6389   34.7568 dc         1 CLA      0.037000
    131 H3A        78.6736   59.1114   35.1834 dc         1 CLA      0.041100
    132 H2A        77.9599   56.0407   35.0605 dc         1 CLA      0.083100
    133 H2         80.8039   54.2602   35.7443 da         1 CLA      0.180900
    134 H18        82.6859   60.5975   43.6188 dc         1 CLA     -0.003900
    135 H13        81.1748   55.5241   40.7900 dc         1 CLA      0.019700
    136 H12        79.6830   53.3800   33.2657 dc         1 CLA      0.120400
    137 H11        81.2837   53.8938   32.7835 dc         1 CLA      0.120400
    138 C1         67.4337   60.6728   48.9556 Z1         2 LUT      0.509236
    139 C2         66.0036   60.6028   49.6284 Z2         2 LUT     -0.434695
    140 C3         65.3245   61.8884   50.0845 Z3         2 LUT      0.437453
    141 O3         65.4986   62.3239   51.4422 S1         2 LUT     -0.547129
    142 C4         65.7491   63.0043   49.0830 Z4         2 LUT     -0.468603
    143 C5         66.4659   62.5959   47.7516 Z5         2 LUT      0.279246
    144 C6         67.2830   61.5393   47.6481 Z6         2 LUT     -0.305473
    145 C7         67.7395   60.9911   46.3359 Z7         2 LUT      0.069402
    146 C8         68.3944   61.7547   45.4258 Z8         2 LUT     -0.191631
    147 C9         68.9482   61.2998   44.1476 Z9         2 LUT      0.196698
    148 C10        69.9324   62.0313   43.5569 Y1         2 LUT     -0.208611
    149 C11        70.7085   61.8171   42.3400 Y2         2 LUT      0.030784
    150 C12        71.7672   62.5434   41.9739 Y3         2 LUT     -0.220316
    151 C13        72.6532   62.3390   40.8026 Y4         2 LUT      0.215937
    152 C14        73.7773   63.1290   40.6287 Y5         2 LUT     -0.185793
    153 C15        74.8587   63.0031   39.6834 Y6         2 LUT     -0.057835
    154 C16        67.7919   59.1430   48.8497 Y7         2 LUT     -0.405615
    155 C17        68.5272   61.2855   49.8540 Y7         2 LUT     -0.405615
    156 C18        65.8656   63.4480   46.6758 Y9         2 LUT     -0.369639
    157 C19        68.5153   59.9868   43.5715 W1         2 LUT     -0.333362
    158 C20        72.0027   61.3728   39.7711 W2         2 LUT     -0.323439
    159 C21        86.4672   64.5479   33.9069 Z1         2 LUT      0.406104
    160 C22        87.4032   64.0320   32.8386 Z2         2 LUT     -0.404965
    161 C23        87.6001   65.0951   31.6861 Z3         2 LUT      0.391255
    162 O23        88.4412   64.4580   30.7093 S1         2 LUT     -0.528210
    163 C24        86.2861   65.7522   31.2851 W6         2 LUT     -0.258361
    164 C25        85.1379   65.7703   31.9645 Z5         2 LUT      0.133546
    165 C26        85.0333   64.9668   33.2319 W8         2 LUT     -0.147008
    166 C27        83.9512   65.5448   34.2319 Z7         2 LUT      0.023843
    167 C28        83.3197   64.8160   35.2182 Z8         2 LUT     -0.216987
    168 C29        82.5554   65.3265   36.3328 Z9         2 LUT      0.206524
    169 C30        81.4980   64.5746   36.7411 Y1         2 LUT     -0.215556
    170 C31        80.5401   64.8634   37.7586 Y2         2 LUT      0.025142
    171 C32        79.3237   64.3048   37.8445 Y3         2 LUT     -0.212209
    172 C33        78.2643   64.5660   38.8473 Y4         2 LUT      0.240937
    173 C34        77.1457   63.6710   38.9009 Y5         2 LUT     -0.218862
    174 C35        76.0522   63.6494   39.8568 Y6         2 LUT     -0.023547
    175 C36        87.2038   65.7194   34.6417 Y7         2 LUT     -0.393485
    176 C37        86.3271   63.3954   34.9447 Y7         2 LUT     -0.393485
    177 C38        83.8918   66.5053   31.4066 Y9         2 LUT     -0.387526
    178 C39        83.0148   66.6445   36.9880 W1         2 LUT     -0.322618
    179 C40        78.6293   65.2750   40.0739 W2         2 LUT     -0.358472
    180 H403       77.9778   65.2252   40.9459 R7         2 LUT      0.097720
    181 H402       79.6349   65.0066   40.4611 R7         2 LUT      0.097720
    182 H401       78.6099   66.2977   39.8500 R7         2 LUT      0.097720
    183 H393       83.0501   67.5368   36.3005 R4         2 LUT      0.082505
    184 H392       82.4645   67.0444   37.8537 R4         2 LUT      0.082505
    185 H391       84.0307   66.4920   37.3596 R4         2 LUT      0.082505
    186 H383       84.0269   67.5499   31.6991 R1         2 LUT      0.104030
    187 H382       83.7689   66.4942   30.3102 R1         2 LUT      0.104030
    188 H381       82.9918   66.2191   31.8458 R1         2 LUT      0.104030
    189 H373       85.7223   62.5570   34.6917 T4         2 LUT      0.089537
    190 H372       87.2932   62.9818   35.3010 T4         2 LUT      0.089537
    191 H371       85.9306   63.8179   35.8753 T4         2 LUT      0.089537
    192 H363       87.9691   65.2740   35.2056 T4         2 LUT      0.089537
    193 H362       87.4669   66.4615   33.8854 T4         2 LUT      0.089537
    194 H361       86.5807   66.1665   35.4228 T4         2 LUT      0.089537
    195 H222       88.4119   63.6913   33.2127 U2         2 LUT      0.127376
    196 H221       86.9159   63.1690   32.3850 U2         2 LUT      0.127376
    197 H203       71.0382   61.7931   39.5318 R7         2 LUT      0.087068
    198 H202       72.4364   61.2393   38.7656 R7         2 LUT      0.087068
    199 H201       71.9479   60.3271   40.1929 R7         2 LUT      0.087068
    200 H193       68.2879   60.1679   42.4744 R4         2 LUT      0.089716
    201 H192       69.2960   59.2224   43.6197 R4         2 LUT      0.089716
    202 H191       67.7207   59.4621   44.1100 R4         2 LUT      0.089716
    203 H183       65.7274   62.8730   45.7198 R1         2 LUT      0.094572
    204 H182       64.9829   64.0967   46.7958 R1         2 LUT      0.094572
    205 H181       66.5747   64.3012   46.4585 R1         2 LUT      0.094572
    206 H173       68.9768   62.2476   49.5295 T4         2 LUT      0.093752
    207 H172       68.2838   61.4006   50.9279 T4         2 LUT      0.093752
    208 H171       69.3749   60.5648   49.8920 T4         2 LUT      0.093752
    209 H163       68.7351   58.9616   48.2322 T4         2 LUT      0.093752
    210 H162       67.8615   58.7306   49.8762 T4         2 LUT      0.093752
    211 H161       66.9294   58.6151   48.3969 T4         2 LUT      0.093752
    212 HO3        65.3450   61.6295   52.0280 Q1         2 LUT      0.300121
    213 H8         68.6782   62.8002   45.6264 U7         2 LUT      0.080784
    214 H7         67.9325   59.9724   46.0478 U6         2 LUT      0.042190
    215 H42        64.9753   63.7846   48.8480 U5         2 LUT      0.145166
    216 H41        66.4056   63.6518   49.7687 U5         2 LUT      0.145166
    217 H35        76.0257   64.3789   40.6511 T3         2 LUT      0.077919
    218 H34        77.0864   62.8677   38.1963 T2         2 LUT      0.073626
    219 H32        79.1205   63.4514   37.1559 T1         2 LUT      0.092510
    220 H31        80.7294   65.6173   38.5490 U9         2 LUT      0.070048
    221 H30        81.2528   63.6728   36.2256 U8         2 LUT      0.085442
    222 H3         64.2894   61.6075   49.9645 U3         2 LUT     -0.031596
    223 H28        83.3062   63.7247   35.1931 U7         2 LUT      0.084728
    224 H27        83.8141   66.6210   34.1887 U6         2 LUT      0.087291
    225 H26        84.5460   64.0718   32.8647 Q6         2 LUT      0.075325
    226 H24        86.2088   66.1463   30.2634 Q5         2 LUT      0.094482
    227 H23        88.2682   65.8882   32.0649 U3         2 LUT     -0.024869
    228 H22        65.3534   60.1044   48.8958 U2         2 LUT      0.127376
    229 H21        66.0412   59.8683   50.4566 U2         2 LUT      0.127376
    230 H15        74.6991   62.2016   38.8987 T3         2 LUT      0.093200
    231 H14        73.9049   63.9700   41.3076 T2         2 LUT      0.068865
    232 H12        72.0160   63.3544   42.6631 T1         2 LUT      0.095507
    233 H11        70.3567   61.0555   41.5949 U9         2 LUT      0.068930
    234 H10        70.3034   62.9951   43.9451 U8         2 LUT      0.083911
    235 H1         87.9189   63.8670   30.1609 Q1         2 LUT      0.297311
@<TRIPOS>BOND
    1     6     1 1
    2     7     2 1
    3     8     3 1
    4     9     4 1
    5    11     4 1
    6    12     6 1
    7    13     9 1
    8    16     9 1
    9    25     5 1
   10    25    16 1
   11    26    10 1
   12    26    17 1
   13    27    18 1
   14    28    14 1
   15    28    19 1
   16    29    12 1
   17    30    13 1
   18    31    24 1
   19    32     1 1
   20    32    25 1
   21    33    21 1
   22    33    26 1
   23    34    22 1
   24    34    27 1
   25    35    23 1
   26    35    28 1
   27    36    12 1
   28    36    24 1
   29    37    13 1
   30    37    15 1
   31    38    31 1
   32    39    20 1
   33    39    32 1
   34    40     2 1
   35    40    33 1
   36    41     3 1
   37    41    34 1
   38    42     4 1
   39    42    35 1
   40    43    38 1
   41    44     5 1
   42    44    17 1
   43    44    39 1
   44    45    10 1
   45    45    18 1
   46    45    40 1
   47    46    19 1
   48    46    41 1
   49    47    14 1
   50    47    16 1
   51    47    42 1
   52    48    38 1
   53    49    48 1
   54    50    49 1
   55    51    50 1
   56    52    51 1
   57    53    51 1
   58    54    53 1
   59    55    54 1
   60    56    55 1
   61    57    56 1
   62    58    56 1
   63    59    58 1
   64    60    59 1
   65    61    60 1
   66    62    61 1
   67    63    61 1
   68    64    27 1
   69    64    46 1
   70    65     5 1
   71    65    10 1
   72    65    64 1
   73    65    14 1
   74    66    23 1
   75    67    23 1
   76    68    23 1
   77    69    22 1
   78    70    22 1
   79    71    22 1
   80    72    21 1
   81    73    21 1
   82    74    21 1
   83    75    20 1
   84    76    20 1
   85    77    20 1
   86    78    15 1
   87    79    15 1
   88    80    15 1
   89    81     8 1
   90    82     8 1
   91    83     8 1
   92    84     7 1
   93    85     7 1
   94    86     6 1
   95    87     6 1
   96    88     3 1
   97    89     3 1
   98    90     1 1
   99    91     1 1
  100    92    63 1
  101    93    63 1
  102    94    63 1
  103    95    62 1
  104    96    62 1
  105    97    62 1
  106    98    60 1
  107    99    60 1
  108   100    59 1
  109   101    59 1
  110   102    58 1
  111   103    58 1
  112   104    57 1
  113   105    57 1
  114   106    57 1
  115   107    55 1
  116   108    55 1
  117   109    54 1
  118   110    54 1
  119   111    53 1
  120   112    53 1
  121   113    19 1
  122   114    18 1
  123   115    17 1
  124   116     9 1
  125   117     2 1
  126   118    52 1
  127   119    52 1
  128   120    52 1
  129   121    51 1
  130   122    50 1
  131   123    50 1
  132   124    49 1
  133   125    49 1
  134   126    48 1
  135   127    48 1
  136   128    43 1
  137   129    43 1
  138   130    43 1
  139   131    39 1
  140   132    32 1
  141   133    31 1
  142   134    61 1
  143   135    56 1
  144   136    24 1
  145   137    24 1
  146   139   138 1
  147   140   139 1
  148   141   140 1
  149   142   140 1
  150   143   142 1
  151   144   138 1
  152   144   143 1
  153   145   144 1
  154   146   145 1
  155   147   146 1
  156   148   147 1
  157   149   148 1
  158   150   149 1
  159   151   150 1
  160   152   151 1
  161   153   152 1
  162   154   138 1
  163   155   138 1
  164   156   143 1
  165   157   147 1
  166   158   151 1
  167   160   159 1
  168   161   160 1
  169   162   161 1
  170   163   161 1
  171   164   163 1
  172   165   159 1
  173   165   164 1
  174   166   165 1
  175   167   166 1
  176   168   167 1
  177   169   168 1
  178   170   169 1
  179   171   170 1
  180   172   171 1
  181   173   172 1
  182   174   153 1
  183   174   173 1
  184   175   159 1
  185   176   159 1
  186   177   164 1
  187   178   168 1
  188   179   172 1
  189   180   179 1
  190   181   179 1
  191   182   179 1
  192   183   178 1
  193   184   178 1
  194   185   178 1
  195   186   177 1
  196   187   177 1
  197   188   177 1
  198   189   176 1
  199   190   176 1
  200   191   176 1
  201   192   175 1
  202   193   175 1
  203   194   175 1
  204   195   160 1
  205   196   160 1
  206   197   158 1
  207   198   158 1
  208   199   158 1
  209   200   157 1
  210   201   157 1
  211   202   157 1
  212   203   156 1
  213   204   156 1
  214   205   156 1
  215   206   155 1
  216   207   155 1
  217   208   155 1
  218   209   154 1
  219   210   154 1
  220   211   154 1
  221   212   141 1
  222   213   146 1
  223   214   145 1
  224   215   142 1
  225   216   142 1
  226   217   174 1
  227   218   173 1
  228   219   171 1
  229   220   170 1
  230   221   169 1
  231   222   140 1
  232   223   167 1
  233   224   166 1
  234   225   165 1
  235   226   163 1
  236   227   161 1
  237   228   139 1
  238   229   139 1
  239   230   153 1
  240   231   152 1
  241   232   150 1
  242   233   149 1
  243   234   148 1
  244   235   162 1
  245   65    153 1
  246   65    174 1
@<TRIPOS>SUBSTRUCTURE
      1 CLA               1 ****               0 ****  **** 
      2 LUT             138 ****               0 ****  **** 
