@<TRIPOS>MOLECULE
Cpptraj generated mol2 file.
  235   246     2     0     0
SMALL
USER_CHARGES


@<TRIPOS>ATOM
      1 CAA        77.5357   58.2344   33.7686 a2         1 CLA     -0.055900
      2 CAB        77.2386   61.3796   43.0225 c8         1 CLA     -0.148500
      3 CAC        70.3708   57.0053   41.9671 a2         1 CLA     -0.012600
      4 CAD        73.4892   55.3875   34.7514 ck         1 CLA      0.398800
      5 NA         76.5217   58.3096   37.1834 ns         1 CLA     -0.225500
      6 CBA        78.7325   58.0975   32.8280 a2         1 CLA     -0.135000
      7 CBB        76.3845   62.3335   43.4443 c0         1 CLA     -0.395200
      8 CBC        70.6593   55.4382   41.8059 a3         1 CLA     -0.037700
      9 CBD        74.9291   55.9907   34.4473 a1         1 CLA     -0.053900
     10 NB         76.1264   59.7401   39.8144 nm         1 CLA     -0.295700
     11 OBD        72.9154   54.5214   34.0385 o2         1 CLA     -0.494600
     12 CGA        79.2001   56.6861   32.4278 c4         1 CLA      0.827000
     13 CGD        75.9576   54.7752   34.1164 c4         1 CLA      0.655300
     14 ND         73.7218   57.3489   37.5972 nm         1 CLA     -0.291600
     15 CED        76.7132   52.6584   34.8581 a3         1 CLA      0.005400
     16 CHA        75.2524   56.8030   35.6911 cs         1 CLA     -0.123800
     17 CHB        78.1594   59.6119   38.4240 aa         1 CLA     -0.291900
     18 CHC        74.7307   59.9010   41.7909 aa         1 CLA     -0.090400
     19 CHD        71.7204   57.1982   39.0132 aa         1 CLA     -0.052000
     20 CMA        79.9594   57.8244   36.5147 a3         1 CLA     -0.230700
     21 CMB        79.4344   61.2897   40.8305 a3         1 CLA     -0.180800
     22 CMC        72.3879   59.1994   43.6517 a3         1 CLA     -0.134000
     23 CMD        70.5761   55.5654   36.5783 a3         1 CLA     -0.141100
     24 C1         80.8548   54.9995   33.0032 a2         1 CLA      0.023000
     25 C1A        76.3897   57.5787   36.0300 ac         1 CLA     -0.015100
     26 C1B        77.4936   60.0039   39.5640 cr         1 CLA      0.054700
     27 C1C        73.6312   59.1127   41.3731 cn         1 CLA     -0.005600
     28 C1D        72.4216   56.9170   37.8646 ap         1 CLA     -0.047300
     29 O1A        78.8222   56.1460   31.3728 o2         1 CLA     -0.610800
     30 O1D        76.7735   54.7975   33.2036 o2         1 CLA     -0.558200
     31 C2         81.3679   54.4365   34.2870 c8         1 CLA     -0.325100
     32 C2A        77.7223   57.6625   35.2236 a1         1 CLA      0.098600
     33 C2B        78.0444   60.7461   40.7219 cb         1 CLA      0.088500
     34 C2C        72.4765   58.7816   42.2388 cb         1 CLA      0.053700
     35 C2D        71.9018   56.1077   36.7334 cb         1 CLA      0.058900
     36 O2A        80.1158   56.2396   33.2794 o1         1 CLA     -0.437200
     37 O2D        75.8536   53.8184   35.0677 o1         1 CLA     -0.357600
     38 C3         82.0549   53.2922   34.4729 c5         1 CLA      0.031200
     39 C3A        78.5977   58.5704   36.1152 a1         1 CLA      0.166800
     40 C3B        77.0712   60.8444   41.6622 cb         1 CLA      0.035000
     41 C3C        71.5933   57.9360   41.5162 cb         1 CLA     -0.089900
     42 C3D        73.0143   55.9863   35.9501 cb         1 CLA     -0.035900
     43 C4         81.2907   52.0612   34.9244 a3         1 CLA     -0.053300
     44 C4A        77.6972   58.8876   37.2923 ac         1 CLA      0.001800
     45 C4B        75.8756   60.2005   41.1217 cn         1 CLA     -0.020900
     46 C4C        72.2265   57.9540   40.1321 cr         1 CLA     -0.044400
     47 C4D        74.0613   56.7865   36.4612 c6         1 CLA     -0.046000
     48 C5         83.5365   53.2509   34.3724 a2         1 CLA     -0.070400
     49 C6         84.3368   54.5002   34.8821 a2         1 CLA      0.043900
     50 C7         84.2509   54.9143   36.3305 a2         1 CLA     -0.150000
     51 C8         84.1362   56.4351   36.7524 a1         1 CLA      0.064200
     52 C9         85.3051   57.3364   36.1171 a3         1 CLA     -0.259300
     53 C10        84.0976   56.5328   38.3074 a2         1 CLA     -0.071900
     54 C11        82.7820   56.1017   39.0152 a2         1 CLA      0.014500
     55 C12        82.8255   56.7859   40.3732 a2         1 CLA     -0.112100
     56 C13        81.5814   56.6810   41.3289 a1         1 CLA      0.089200
     57 C14        80.3489   57.3744   40.7093 a3         1 CLA     -0.239100
     58 C15        81.8485   57.1794   42.7132 a2         1 CLA     -0.102200
     59 C16        82.3642   58.6810   42.9214 a2         1 CLA      0.023900
     60 C17        82.2660   59.0536   44.3724 a2         1 CLA     -0.105700
     61 C18        81.9605   60.5520   44.7372 a1         1 CLA      0.206800
     62 C19        82.0762   60.7484   46.2408 a3         1 CLA     -0.280100
     63 C20        82.9473   61.5394   44.0628 a3         1 CLA     -0.280100
     64 NC         73.4639   58.5476   40.1266 nx         1 CLA     -0.309200
     65 MG         74.8892   58.6184   38.5811 mg         1 CLA      0.895000
     66 HMD3       70.1831   56.0189   35.7040 dc         1 CLA      0.064300
     67 HMD2       70.7456   54.4577   36.3997 dc         1 CLA      0.064300
     68 HMD1       69.8950   55.6806   37.4020 dc         1 CLA      0.064300
     69 HMC3       71.9343   60.1551   43.7798 dc         1 CLA      0.052100
     70 HMC2       71.7904   58.3819   44.0949 dc         1 CLA      0.052100
     71 HMC1       73.4263   59.2300   44.0282 dc         1 CLA      0.052100
     72 HMB3       80.1096   60.4912   40.4449 dc         1 CLA      0.063600
     73 HMB2       79.6073   62.0910   40.1245 dc         1 CLA      0.063600
     74 HMB1       79.5301   61.5344   41.9143 dc         1 CLA      0.063600
     75 HMA3       80.4363   58.5117   37.2053 dc         1 CLA      0.058300
     76 HMA2       79.5448   56.9998   37.1179 dc         1 CLA      0.058300
     77 HMA1       80.5889   57.5579   35.6697 dc         1 CLA      0.058300
     78 HED3       76.4361   52.0632   35.6828 dc         1 CLA      0.079300
     79 HED2       76.4426   52.2406   33.8740 dc         1 CLA      0.079300
     80 HED1       77.7738   52.9088   34.8906 dc         1 CLA      0.079300
     81 HBC3       71.5620   55.2587   42.3126 dc         1 CLA      0.016300
     82 HBC2       70.0423   54.8839   42.5139 dc         1 CLA      0.016300
     83 HBC1       70.6643   54.9347   40.8318 dc         1 CLA      0.016300
     84 HBB2       76.4039   62.7344   44.4657 da         1 CLA      0.183000
     85 HBB1       75.7645   62.9014   42.7796 da         1 CLA      0.183000
     86 HBA2       78.4340   58.6357   31.9431 dc         1 CLA      0.029400
     87 HBA1       79.5962   58.6250   33.2595 dc         1 CLA      0.029400
     88 HAC2       70.1758   57.2013   43.0351 dc         1 CLA      0.029300
     89 HAC1       69.4199   57.2641   41.4923 dc         1 CLA      0.029300
     90 HAA2       76.7743   57.7757   33.2285 dc         1 CLA      0.028700
     91 HAA1       77.2295   59.2574   33.8902 dc         1 CLA      0.028700
     92 H203       83.9817   61.2169   44.2461 dc         1 CLA      0.065600
     93 H202       82.8231   61.3775   42.9591 dc         1 CLA      0.065600
     94 H201       82.7972   62.5644   44.4047 dc         1 CLA      0.065600
     95 H193       81.9578   61.7706   46.3998 dc         1 CLA      0.065600
     96 H192       81.2006   60.0754   46.4731 dc         1 CLA      0.065600
     97 H191       82.9663   60.3496   46.7816 dc         1 CLA      0.065600
     98 H172       81.3468   58.5939   44.7401 dc         1 CLA      0.027600
     99 H171       83.0691   58.6001   44.8625 dc         1 CLA      0.027600
    100 H162       83.4073   58.7585   42.7454 dc         1 CLA      0.002900
    101 H161       81.9168   59.2921   42.2006 dc         1 CLA      0.002900
    102 H152       80.9385   57.1237   43.2202 dc         1 CLA      0.029100
    103 H151       82.5888   56.5311   43.1729 dc         1 CLA      0.029100
    104 H143       80.6010   58.4238   40.4053 dc         1 CLA      0.063600
    105 H142       79.9779   56.8145   39.8549 dc         1 CLA      0.063600
    106 H141       79.4767   57.4058   41.4183 dc         1 CLA      0.063600
    107 H122       83.6243   56.2689   40.9149 dc         1 CLA      0.032500
    108 H121       83.0726   57.8489   40.2784 dc         1 CLA      0.032500
    109 H112       82.0012   56.4645   38.3094 dc         1 CLA      0.006600
    110 H111       82.6791   55.0434   39.0695 dc         1 CLA      0.006600
    111 H102       84.9416   55.9581   38.6384 dc         1 CLA      0.024100
    112 H101       84.3347   57.6007   38.6269 dc         1 CLA      0.024100
    113 HHD        70.7207   56.7911   39.0385 da         1 CLA      0.174300
    114 HHC        74.7935   60.3069   42.8485 da         1 CLA      0.136800
    115 HHB        79.1383   59.9998   38.3443 da         1 CLA      0.138300
    116 HBD        74.8516   56.6574   33.6006 dc         1 CLA      0.107700
    117 HAB        77.9771   60.8842   43.6967 da         1 CLA      0.155200
    118 H93        85.0963   58.4094   36.4247 dc         1 CLA      0.069500
    119 H92        86.2149   56.9678   36.4678 dc         1 CLA      0.069500
    120 H91        85.4100   57.4522   35.0089 dc         1 CLA      0.069500
    121 H8         83.2065   56.8787   36.3104 dc         1 CLA      0.029300
    122 H72        83.2124   54.6189   36.6249 dc         1 CLA      0.044400
    123 H71        84.9296   54.3939   36.9412 dc         1 CLA      0.044400
    124 H62        85.3090   54.4923   34.5701 dc         1 CLA      0.015600
    125 H61        83.8643   55.3233   34.2498 dc         1 CLA      0.015600
    126 H52        84.0078   52.5159   35.0536 dc         1 CLA      0.033200
    127 H51        83.7588   52.9957   33.3444 dc         1 CLA      0.033200
    128 H43        81.6449   51.6102   35.8268 dc         1 CLA      0.037000
    129 H42        80.3216   52.4135   35.1347 dc         1 CLA      0.037000
    130 H41        81.1568   51.2939   34.1396 dc         1 CLA      0.037000
    131 H3A        78.8162   59.5662   35.6494 dc         1 CLA      0.041100
    132 H2A        78.1452   56.6854   35.1376 dc         1 CLA      0.083100
    133 H2         81.3325   55.0594   35.1463 da         1 CLA      0.180900
    134 H18        80.9239   60.7181   44.5388 dc         1 CLA     -0.003900
    135 H13        81.3595   55.6360   41.4829 dc         1 CLA      0.019700
    136 H12        80.1445   54.2474   32.5984 dc         1 CLA      0.120400
    137 H11        81.6150   55.2895   32.2924 dc         1 CLA      0.120400
    138 C1         67.5991   60.5292   48.7113 Z1         2 LUT      0.509236
    139 C2         66.2014   60.3357   49.4118 Z2         2 LUT     -0.434695
    140 C3         65.6292   61.6521   49.9182 Z3         2 LUT      0.437453
    141 O3         66.1237   61.9360   51.2238 S1         2 LUT     -0.547129
    142 C4         65.7513   62.7976   49.0182 Z4         2 LUT     -0.468603
    143 C5         66.3787   62.5003   47.7109 Z5         2 LUT      0.279246
    144 C6         67.3241   61.5067   47.5959 Z6         2 LUT     -0.305473
    145 C7         67.7180   61.1155   46.2368 Z7         2 LUT      0.069402
    146 C8         68.7120   61.5692   45.4665 Z8         2 LUT     -0.191631
    147 C9         69.0407   61.1806   44.0809 Z9         2 LUT      0.196698
    148 C10        69.9223   62.0192   43.3967 Y1         2 LUT     -0.208611
    149 C11        70.6185   61.8883   42.0979 Y2         2 LUT      0.030784
    150 C12        71.8099   62.5095   41.8954 Y3         2 LUT     -0.220316
    151 C13        72.7059   62.4341   40.7039 Y4         2 LUT      0.215937
    152 C14        73.8774   63.1481   40.8533 Y5         2 LUT     -0.185793
    153 C15        74.9283   63.2508   39.8722 Y6         2 LUT     -0.057835
    154 C16        68.3030   59.1229   48.3481 Y7         2 LUT     -0.405615
    155 C17        68.6133   61.2566   49.6005 Y7         2 LUT     -0.405615
    156 C18        65.5772   63.2149   46.6395 Y9         2 LUT     -0.369639
    157 C19        68.5063   59.9147   43.5520 W1         2 LUT     -0.333362
    158 C20        72.1943   61.7996   39.4322 W2         2 LUT     -0.323439
    159 C21        86.8824   65.0401   34.5588 Z1         2 LUT      0.406104
    160 C22        87.6636   64.2795   33.5195 Z2         2 LUT     -0.404965
    161 C23        87.7508   65.0338   32.1439 Z3         2 LUT      0.391255
    162 O23        88.1905   63.8902   31.3203 S1         2 LUT     -0.528210
    163 C24        86.4651   65.7132   31.7228 W6         2 LUT     -0.258361
    164 C25        85.4253   65.8973   32.5453 Z5         2 LUT      0.133546
    165 C26        85.4480   65.3766   34.0030 W8         2 LUT     -0.147008
    166 C27        84.5597   65.9937   35.0526 Z7         2 LUT      0.023843
    167 C28        83.3596   65.4317   35.5213 Z8         2 LUT     -0.216987
    168 C29        82.5556   65.9497   36.5961 Z9         2 LUT      0.206524
    169 C30        81.5131   65.0961   37.1368 Y1         2 LUT     -0.215556
    170 C31        80.6164   65.2920   38.2955 Y2         2 LUT      0.025142
    171 C32        79.4187   64.5540   38.4791 Y3         2 LUT     -0.212209
    172 C33        78.3805   64.7005   39.4880 Y4         2 LUT      0.240937
    173 C34        77.1687   64.0833   39.1900 Y5         2 LUT     -0.218862
    174 C35        76.0687   63.9886   40.0700 Y6         2 LUT     -0.023547
    175 C36        87.7280   66.2611   35.0370 Y7         2 LUT     -0.393485
    176 C37        86.6771   64.0787   35.7352 Y7         2 LUT     -0.393485
    177 C38        84.3148   66.7768   32.1037 Y9         2 LUT     -0.387526
    178 C39        82.9921   67.1985   37.2118 W1         2 LUT     -0.322618
    179 C40        78.6655   65.4826   40.7175 W2         2 LUT     -0.358472
    180 H403       78.2879   66.4893   40.6168 R7         2 LUT      0.097720
    181 H402       78.1346   64.9707   41.5262 R7         2 LUT      0.097720
    182 H401       79.7081   65.5150   40.9677 R7         2 LUT      0.097720
    183 H393       83.8477   67.0566   37.9159 R4         2 LUT      0.082505
    184 H392       83.2863   67.9574   36.5041 R4         2 LUT      0.082505
    185 H391       82.1018   67.5590   37.8146 R4         2 LUT      0.082505
    186 H383       84.5783   67.8209   31.9839 R1         2 LUT      0.104030
    187 H382       83.9642   66.4473   31.1080 R1         2 LUT      0.104030
    188 H381       83.3937   66.7990   32.8023 R1         2 LUT      0.104030
    189 H373       86.1179   63.1611   35.4348 T4         2 LUT      0.089537
    190 H372       87.6306   63.9301   36.2080 T4         2 LUT      0.089537
    191 H371       85.9124   64.3970   36.4418 T4         2 LUT      0.089537
    192 H363       88.6028   65.9551   35.4892 T4         2 LUT      0.089537
    193 H362       88.0019   66.9515   34.2466 T4         2 LUT      0.089537
    194 H361       87.1837   66.8541   35.8143 T4         2 LUT      0.089537
    195 H222       88.7032   63.9541   33.8317 U2         2 LUT      0.127376
    196 H221       87.1500   63.2845   33.3386 U2         2 LUT      0.127376
    197 H203       72.3195   62.5007   38.5791 R7         2 LUT      0.087068
    198 H202       72.7776   60.9196   39.1470 R7         2 LUT      0.087068
    199 H201       71.1613   61.5148   39.3926 R7         2 LUT      0.087068
    200 H193       67.5057   59.7465   43.8464 R4         2 LUT      0.089716
    201 H192       68.5102   59.8552   42.4854 R4         2 LUT      0.089716
    202 H191       69.0836   59.0419   43.9007 R4         2 LUT      0.089716
    203 H183       65.7376   62.7943   45.6158 R1         2 LUT      0.094572
    204 H182       64.4616   63.1513   46.6751 R1         2 LUT      0.094572
    205 H181       65.8623   64.3175   46.6372 R1         2 LUT      0.094572
    206 H173       69.6773   61.1527   49.2493 T4         2 LUT      0.093752
    207 H172       68.3585   62.2961   49.7834 T4         2 LUT      0.093752
    208 H171       68.6236   60.9023   50.6753 T4         2 LUT      0.093752
    209 H163       69.2532   59.2033   47.7301 T4         2 LUT      0.093752
    210 H162       68.5839   58.5208   49.2486 T4         2 LUT      0.093752
    211 H161       67.6130   58.5185   47.7862 T4         2 LUT      0.093752
    212 HO3        65.9330   61.2591   51.8415 Q1         2 LUT      0.300121
    213 H8         69.3646   62.3495   45.9855 U7         2 LUT      0.080784
    214 H7         67.0210   60.3883   45.9437 U6         2 LUT      0.042190
    215 H42        64.7765   63.3184   49.0055 U5         2 LUT      0.145166
    216 H41        66.2634   63.5915   49.4996 U5         2 LUT      0.145166
    217 H35        76.0634   64.3342   41.0585 T3         2 LUT      0.077919
    218 H34        77.1940   63.4613   38.2974 T2         2 LUT      0.073626
    219 H32        79.3571   63.8292   37.7133 T1         2 LUT      0.092510
    220 H31        80.7748   66.1368   38.9527 U9         2 LUT      0.070048
    221 H30        81.3662   64.2030   36.5904 U8         2 LUT      0.085442
    222 H3         64.5702   61.6334   50.1100 U3         2 LUT     -0.031596
    223 H28        83.1103   64.4682   35.1203 U7         2 LUT      0.084728
    224 H27        84.9202   66.9877   35.4672 U6         2 LUT      0.087291
    225 H26        85.0531   64.3666   33.7660 Q6         2 LUT      0.075325
    226 H24        86.3974   66.2618   30.7258 Q5         2 LUT      0.094482
    227 H23        88.7002   65.7105   32.3168 U3         2 LUT     -0.024869
    228 H22        65.4427   59.8638   48.7409 U2         2 LUT      0.127376
    229 H21        66.1808   59.5891   50.2228 U2         2 LUT      0.127376
    230 H15        74.7781   62.7689   38.8663 T3         2 LUT      0.093200
    231 H14        74.0700   63.6753   41.7783 T2         2 LUT      0.068865
    232 H12        72.0555   63.2247   42.6534 T1         2 LUT      0.095507
    233 H11        70.3875   61.1747   41.3015 U9         2 LUT      0.068930
    234 H10        70.2287   62.9923   43.8351 U8         2 LUT      0.083911
    235 H1         88.1544   64.1603   30.4069 Q1         2 LUT      0.297311
@<TRIPOS>BOND
    1     6     1 1
    2     7     2 1
    3     8     3 1
    4     9     4 1
    5    11     4 1
    6    12     6 1
    7    13     9 1
    8    16     9 1
    9    25     5 1
   10    25    16 1
   11    26    10 1
   12    26    17 1
   13    27    18 1
   14    28    14 1
   15    28    19 1
   16    29    12 1
   17    30    13 1
   18    31    24 1
   19    32     1 1
   20    32    25 1
   21    33    21 1
   22    33    26 1
   23    34    22 1
   24    34    27 1
   25    35    23 1
   26    35    28 1
   27    36    12 1
   28    36    24 1
   29    37    13 1
   30    37    15 1
   31    38    31 1
   32    39    20 1
   33    39    32 1
   34    40     2 1
   35    40    33 1
   36    41     3 1
   37    41    34 1
   38    42     4 1
   39    42    35 1
   40    43    38 1
   41    44     5 1
   42    44    17 1
   43    44    39 1
   44    45    10 1
   45    45    18 1
   46    45    40 1
   47    46    19 1
   48    46    41 1
   49    47    14 1
   50    47    16 1
   51    47    42 1
   52    48    38 1
   53    49    48 1
   54    50    49 1
   55    51    50 1
   56    52    51 1
   57    53    51 1
   58    54    53 1
   59    55    54 1
   60    56    55 1
   61    57    56 1
   62    58    56 1
   63    59    58 1
   64    60    59 1
   65    61    60 1
   66    62    61 1
   67    63    61 1
   68    64    27 1
   69    64    46 1
   70    65     5 1
   71    65    10 1
   72    65    64 1
   73    65    14 1
   74    66    23 1
   75    67    23 1
   76    68    23 1
   77    69    22 1
   78    70    22 1
   79    71    22 1
   80    72    21 1
   81    73    21 1
   82    74    21 1
   83    75    20 1
   84    76    20 1
   85    77    20 1
   86    78    15 1
   87    79    15 1
   88    80    15 1
   89    81     8 1
   90    82     8 1
   91    83     8 1
   92    84     7 1
   93    85     7 1
   94    86     6 1
   95    87     6 1
   96    88     3 1
   97    89     3 1
   98    90     1 1
   99    91     1 1
  100    92    63 1
  101    93    63 1
  102    94    63 1
  103    95    62 1
  104    96    62 1
  105    97    62 1
  106    98    60 1
  107    99    60 1
  108   100    59 1
  109   101    59 1
  110   102    58 1
  111   103    58 1
  112   104    57 1
  113   105    57 1
  114   106    57 1
  115   107    55 1
  116   108    55 1
  117   109    54 1
  118   110    54 1
  119   111    53 1
  120   112    53 1
  121   113    19 1
  122   114    18 1
  123   115    17 1
  124   116     9 1
  125   117     2 1
  126   118    52 1
  127   119    52 1
  128   120    52 1
  129   121    51 1
  130   122    50 1
  131   123    50 1
  132   124    49 1
  133   125    49 1
  134   126    48 1
  135   127    48 1
  136   128    43 1
  137   129    43 1
  138   130    43 1
  139   131    39 1
  140   132    32 1
  141   133    31 1
  142   134    61 1
  143   135    56 1
  144   136    24 1
  145   137    24 1
  146   139   138 1
  147   140   139 1
  148   141   140 1
  149   142   140 1
  150   143   142 1
  151   144   138 1
  152   144   143 1
  153   145   144 1
  154   146   145 1
  155   147   146 1
  156   148   147 1
  157   149   148 1
  158   150   149 1
  159   151   150 1
  160   152   151 1
  161   153   152 1
  162   154   138 1
  163   155   138 1
  164   156   143 1
  165   157   147 1
  166   158   151 1
  167   160   159 1
  168   161   160 1
  169   162   161 1
  170   163   161 1
  171   164   163 1
  172   165   159 1
  173   165   164 1
  174   166   165 1
  175   167   166 1
  176   168   167 1
  177   169   168 1
  178   170   169 1
  179   171   170 1
  180   172   171 1
  181   173   172 1
  182   174   153 1
  183   174   173 1
  184   175   159 1
  185   176   159 1
  186   177   164 1
  187   178   168 1
  188   179   172 1
  189   180   179 1
  190   181   179 1
  191   182   179 1
  192   183   178 1
  193   184   178 1
  194   185   178 1
  195   186   177 1
  196   187   177 1
  197   188   177 1
  198   189   176 1
  199   190   176 1
  200   191   176 1
  201   192   175 1
  202   193   175 1
  203   194   175 1
  204   195   160 1
  205   196   160 1
  206   197   158 1
  207   198   158 1
  208   199   158 1
  209   200   157 1
  210   201   157 1
  211   202   157 1
  212   203   156 1
  213   204   156 1
  214   205   156 1
  215   206   155 1
  216   207   155 1
  217   208   155 1
  218   209   154 1
  219   210   154 1
  220   211   154 1
  221   212   141 1
  222   213   146 1
  223   214   145 1
  224   215   142 1
  225   216   142 1
  226   217   174 1
  227   218   173 1
  228   219   171 1
  229   220   170 1
  230   221   169 1
  231   222   140 1
  232   223   167 1
  233   224   166 1
  234   225   165 1
  235   226   163 1
  236   227   161 1
  237   228   139 1
  238   229   139 1
  239   230   153 1
  240   231   152 1
  241   232   150 1
  242   233   149 1
  243   234   148 1
  244   235   162 1
  245   65    153 1
  246   65    174 1
@<TRIPOS>SUBSTRUCTURE
      1 CLA               1 ****               0 ****  **** 
      2 LUT             138 ****               0 ****  **** 
