@<TRIPOS>MOLECULE
Cpptraj generated mol2 file.
  235   246     2     0     0
SMALL
USER_CHARGES


@<TRIPOS>ATOM
      1 CAA        80.0280   58.2565   34.3478 a2         1 CLA     -0.055900
      2 CAB        80.7357   62.0998   42.9255 c8         1 CLA     -0.148500
      3 CAC        73.6642   58.4015   43.1982 a2         1 CLA     -0.012600
      4 CAD        75.6167   55.5336   35.6793 ck         1 CLA      0.398800
      5 NA         79.1717   58.3779   37.6039 ns         1 CLA     -0.225500
      6 CBA        81.1164   58.3362   33.2801 a2         1 CLA     -0.135000
      7 CBB        81.8366   62.7977   43.2718 c0         1 CLA     -0.395200
      8 CBC        73.8708   56.8602   43.4976 a3         1 CLA     -0.037700
      9 CBD        77.1590   55.8454   35.2735 a1         1 CLA     -0.053900
     10 NB         79.3568   60.0738   40.0300 nm         1 CLA     -0.295700
     11 OBD        74.8948   54.8737   34.9660 o2         1 CLA     -0.494600
     12 CGA        81.6117   56.9496   32.9512 c4         1 CLA      0.827000
     13 CGD        77.9384   54.5633   35.2348 c4         1 CLA      0.655300
     14 ND         76.3749   57.7482   38.3235 nm         1 CLA     -0.291600
     15 CED        78.6040   52.6008   36.6618 a3         1 CLA      0.005400
     16 CHA        77.7245   56.8073   36.3801 cs         1 CLA     -0.123800
     17 CHB        81.0809   59.6219   38.4351 aa         1 CLA     -0.291900
     18 CHC        78.1334   60.5093   42.1664 aa         1 CLA     -0.090400
     19 CHD        74.6821   57.8029   40.1194 aa         1 CLA     -0.052000
     20 CMA        82.0489   56.8425   37.4267 a3         1 CLA     -0.230700
     21 CMB        82.8696   61.2872   40.3544 a3         1 CLA     -0.180800
     22 CMC        76.0105   60.2331   44.4255 a3         1 CLA     -0.134000
     23 CMD        73.1721   55.8888   37.9609 a3         1 CLA     -0.141100
     24 C1         82.5148   54.8873   33.6973 a2         1 CLA      0.023000
     25 C1A        78.9254   57.4425   36.5705 ac         1 CLA     -0.015100
     26 C1B        80.6211   60.2227   39.5715 cr         1 CLA      0.054700
     27 C1C        76.9450   59.8074   42.0417 cn         1 CLA     -0.005600
     28 C1D        75.1724   57.3306   38.8736 ap         1 CLA     -0.047300
     29 O1A        81.4411   56.4239   31.8782 o2         1 CLA     -0.610800
     30 O1D        78.6834   54.1724   34.3378 o2         1 CLA     -0.558200
     31 C2         83.5608   54.4031   34.7126 c8         1 CLA     -0.325100
     32 C2A        80.1827   57.4067   35.6703 a1         1 CLA      0.098600
     33 C2B        81.3465   61.0317   40.5602 cb         1 CLA      0.088500
     34 C2C        75.9526   59.6297   43.0725 cb         1 CLA      0.053700
     35 C2D        74.5044   56.4916   37.8933 cb         1 CLA      0.058900
     36 O2A        82.1787   56.3019   34.0243 o1         1 CLA     -0.437200
     37 O2D        77.8982   53.8988   36.4840 o1         1 CLA     -0.357600
     38 C3         84.8819   54.2775   34.4034 c5         1 CLA      0.031200
     39 C3A        81.3198   57.9484   36.6049 a1         1 CLA      0.166800
     40 C3B        80.5092   61.3015   41.6356 cb         1 CLA      0.035000
     41 C3C        74.8691   58.9258   42.4485 cb         1 CLA     -0.089900
     42 C3D        75.4550   56.2239   36.9619 cb         1 CLA     -0.035900
     43 C4         85.4324   53.0661   33.6775 a3         1 CLA     -0.053300
     44 C4A        80.4837   58.7417   37.5782 ac         1 CLA      0.001800
     45 C4B        79.2311   60.6310   41.2781 cn         1 CLA     -0.020900
     46 C4C        75.2638   58.6556   41.0528 cr         1 CLA     -0.044400
     47 C4D        76.5833   56.9696   37.2800 c6         1 CLA     -0.046000
     48 C5         85.8108   55.3108   34.9513 a2         1 CLA     -0.070400
     49 C6         86.2740   55.2689   36.4125 a2         1 CLA      0.043900
     50 C7         87.5352   56.1857   36.6379 a2         1 CLA     -0.150000
     51 C8         87.8587   56.5623   38.1576 a1         1 CLA      0.064200
     52 C9         86.6736   57.3712   38.7770 a3         1 CLA     -0.259300
     53 C10        89.1937   57.2724   38.2213 a2         1 CLA     -0.071900
     54 C11        89.5583   57.9074   39.5848 a2         1 CLA      0.014500
     55 C12        89.6680   57.0865   40.8939 a2         1 CLA     -0.112100
     56 C13        90.3934   57.7966   42.1077 a1         1 CLA      0.089200
     57 C14        90.8498   56.7729   43.1035 a3         1 CLA     -0.239100
     58 C15        89.4352   58.8905   42.7365 a2         1 CLA     -0.102200
     59 C16        88.1932   58.4549   43.4435 a2         1 CLA      0.023900
     60 C17        87.3166   59.6255   43.9153 a2         1 CLA     -0.105700
     61 C18        85.9583   59.2387   44.5851 a1         1 CLA      0.206800
     62 C19        86.0940   58.9160   46.1096 a3         1 CLA     -0.280100
     63 C20        84.8910   60.4404   44.4436 a3         1 CLA     -0.280100
     64 NC         76.5317   59.2644   40.8383 nx         1 CLA     -0.309200
     65 MG         77.7445   59.0626   39.1297 mg         1 CLA      0.895000
     66 HMD3       73.0501   55.3457   37.0626 dc         1 CLA      0.064300
     67 HMD2       73.1180   55.2055   38.7625 dc         1 CLA      0.064300
     68 HMD1       72.3516   56.6310   38.0235 dc         1 CLA      0.064300
     69 HMC3       77.0241   60.1287   44.6990 dc         1 CLA      0.052100
     70 HMC2       75.6164   61.2585   44.3046 dc         1 CLA      0.052100
     71 HMC1       75.4605   59.6954   45.2265 dc         1 CLA      0.052100
     72 HMB3       83.1925   61.2044   39.3207 dc         1 CLA      0.063600
     73 HMB2       83.0550   62.3884   40.5478 dc         1 CLA      0.063600
     74 HMB1       83.5355   60.6687   40.9913 dc         1 CLA      0.063600
     75 HMA3       81.4059   56.3809   38.1431 dc         1 CLA      0.058300
     76 HMA2       82.5006   56.1841   36.7388 dc         1 CLA      0.058300
     77 HMA1       82.8496   57.3906   37.9005 dc         1 CLA      0.058300
     78 HED3       78.3474   51.7865   35.9630 dc         1 CLA      0.079300
     79 HED2       79.6765   52.7560   36.6344 dc         1 CLA      0.079300
     80 HED1       78.2864   52.2913   37.6400 dc         1 CLA      0.079300
     81 HBC3       74.5732   56.6980   44.3360 dc         1 CLA      0.016300
     82 HBC2       72.9752   56.3947   43.9684 dc         1 CLA      0.016300
     83 HBC1       74.0182   56.2125   42.6142 dc         1 CLA      0.016300
     84 HBB2       82.0234   63.1881   44.3364 da         1 CLA      0.183000
     85 HBB1       82.7744   62.8733   42.6424 da         1 CLA      0.183000
     86 HBA2       80.6672   58.8041   32.4033 dc         1 CLA      0.029400
     87 HBA1       81.9381   58.9077   33.7595 dc         1 CLA      0.029400
     88 HAC2       73.5264   58.9772   44.1373 dc         1 CLA      0.029300
     89 HAC1       72.7092   58.5014   42.6684 dc         1 CLA      0.029300
     90 HAA2       79.1486   57.9526   33.7774 dc         1 CLA      0.028700
     91 HAA1       80.0967   59.2904   34.6079 dc         1 CLA      0.028700
     92 H203       85.1989   61.1421   45.2032 dc         1 CLA      0.065600
     93 H202       85.0119   60.9090   43.5269 dc         1 CLA      0.065600
     94 H201       83.8692   60.1719   44.6977 dc         1 CLA      0.065600
     95 H193       86.5853   57.9912   46.2985 dc         1 CLA      0.065600
     96 H192       86.7403   59.7131   46.4852 dc         1 CLA      0.065600
     97 H191       85.1105   58.8868   46.6698 dc         1 CLA      0.065600
     98 H172       87.8207   60.3643   44.4535 dc         1 CLA      0.027600
     99 H171       86.9645   60.0292   43.0295 dc         1 CLA      0.027600
    100 H162       87.5746   57.7140   42.8930 dc         1 CLA      0.002900
    101 H161       88.4392   57.8960   44.2938 dc         1 CLA      0.002900
    102 H152       90.0700   59.5404   43.3294 dc         1 CLA      0.029100
    103 H151       89.1548   59.4899   41.8056 dc         1 CLA      0.029100
    104 H143       91.3351   56.0013   42.5407 dc         1 CLA      0.063600
    105 H142       91.4605   57.0500   43.9496 dc         1 CLA      0.063600
    106 H141       89.9921   56.2739   43.5958 dc         1 CLA      0.063600
    107 H122       88.6871   56.7584   41.2560 dc         1 CLA      0.032500
    108 H121       90.2558   56.1793   40.8176 dc         1 CLA      0.032500
    109 H112       90.5559   58.3965   39.4806 dc         1 CLA      0.006600
    110 H111       88.8940   58.6945   39.6466 dc         1 CLA      0.006600
    111 H102       89.9667   56.4786   38.0480 dc         1 CLA      0.024100
    112 H101       89.2965   57.9431   37.4137 dc         1 CLA      0.024100
    113 HHD        73.7561   57.3349   40.3598 da         1 CLA      0.174300
    114 HHC        78.1789   61.0471   43.1374 da         1 CLA      0.136800
    115 HHB        82.1774   59.6916   38.3143 da         1 CLA      0.138300
    116 HBD        77.1456   56.4537   34.3003 dc         1 CLA      0.107700
    117 HAB        80.0454   61.8833   43.7475 da         1 CLA      0.155200
    118 H93        86.9140   57.5079   39.8266 dc         1 CLA      0.069500
    119 H92        86.6091   58.3997   38.3014 dc         1 CLA      0.069500
    120 H91        85.6879   56.9502   38.6437 dc         1 CLA      0.069500
    121 H8         87.9816   55.6135   38.7373 dc         1 CLA      0.029300
    122 H72        88.2995   55.7002   36.1493 dc         1 CLA      0.044400
    123 H71        87.3824   57.1660   36.1921 dc         1 CLA      0.044400
    124 H62        85.3234   55.3822   36.9343 dc         1 CLA      0.015600
    125 H61        86.6691   54.2280   36.5191 dc         1 CLA      0.015600
    126 H52        86.6989   55.4294   34.3380 dc         1 CLA      0.033200
    127 H51        85.2901   56.2283   34.8831 dc         1 CLA      0.033200
    128 H43        85.6852   53.4030   32.6299 dc         1 CLA      0.037000
    129 H42        86.2483   52.5426   34.1963 dc         1 CLA      0.037000
    130 H41        84.7047   52.2968   33.5812 dc         1 CLA      0.037000
    131 H3A        82.1152   58.5822   36.1359 dc         1 CLA      0.041100
    132 H2A        80.2664   56.3508   35.4039 dc         1 CLA      0.083100
    133 H2         83.1424   53.8709   35.5557 da         1 CLA      0.180900
    134 H18        85.5729   58.2908   44.1481 dc         1 CLA     -0.003900
    135 H13        91.2937   58.2698   41.6772 dc         1 CLA      0.019700
    136 H12        81.5586   54.3811   33.8987 dc         1 CLA      0.120400
    137 H11        82.8720   54.7039   32.7395 dc         1 CLA      0.120400
    138 C1         69.8804   61.7547   49.6276 Z1         2 LUT      0.509236
    139 C2         68.4687   61.7620   50.3113 Z2         2 LUT     -0.434695
    140 C3         67.8135   63.1179   50.5956 Z3         2 LUT      0.437453
    141 O3         68.5812   63.6504   51.6898 S1         2 LUT     -0.547129
    142 C4         67.9168   64.0459   49.4184 Z4         2 LUT     -0.468603
    143 C5         68.8791   63.7436   48.3966 Z5         2 LUT      0.279246
    144 C6         69.7861   62.7645   48.4339 Z6         2 LUT     -0.305473
    145 C7         70.5126   62.3594   47.2291 Z7         2 LUT      0.069402
    146 C8         71.3406   63.0671   46.3647 Z8         2 LUT     -0.191631
    147 C9         71.9731   62.6401   45.1438 Z9         2 LUT      0.196698
    148 C10        72.9191   63.3492   44.4968 Y1         2 LUT     -0.208611
    149 C11        73.7096   63.0767   43.3366 Y2         2 LUT      0.030784
    150 C12        74.7248   63.9143   42.9838 Y3         2 LUT     -0.220316
    151 C13        75.7701   63.7960   41.9331 Y4         2 LUT      0.215937
    152 C14        76.8468   64.5800   41.9758 Y5         2 LUT     -0.185793
    153 C15        78.0054   64.5030   41.0745 Y6         2 LUT     -0.057835
    154 C16        70.3198   60.2822   49.3619 Y7         2 LUT     -0.405615
    155 C17        70.9891   62.1430   50.7238 Y7         2 LUT     -0.405615
    156 C18        68.5948   64.6041   47.2084 Y9         2 LUT     -0.369639
    157 C19        71.4207   61.4723   44.4076 W1         2 LUT     -0.333362
    158 C20        75.4481   62.9429   40.7764 W2         2 LUT     -0.323439
    159 C21        89.1668   65.5263   34.5468 Z1         2 LUT      0.406104
    160 C22        89.8329   64.7193   33.3945 Z2         2 LUT     -0.404965
    161 C23        89.7223   65.3873   32.0743 Z3         2 LUT      0.391255
    162 O23        90.0554   64.3682   31.1365 S1         2 LUT     -0.528210
    163 C24        88.4474   66.1795   31.8640 W6         2 LUT     -0.258361
    164 C25        87.4674   66.3875   32.8079 Z5         2 LUT      0.133546
    165 C26        87.6772   65.8050   34.2605 W8         2 LUT     -0.147008
    166 C27        87.0252   66.7256   35.3360 Z7         2 LUT      0.023843
    167 C28        85.7698   66.4455   35.8208 Z8         2 LUT     -0.216987
    168 C29        85.1944   66.9485   37.0995 Z9         2 LUT      0.206524
    169 C30        84.1506   66.2667   37.6038 Y1         2 LUT     -0.215556
    170 C31        83.3741   66.4043   38.8067 Y2         2 LUT      0.025142
    171 C32        82.3744   65.6001   39.1410 Y3         2 LUT     -0.212209
    172 C33        81.4983   65.8526   40.2417 Y4         2 LUT      0.240937
    173 C34        80.3103   65.0892   40.2718 Y5         2 LUT     -0.218862
    174 C35        79.1607   65.1784   41.1591 Y6         2 LUT     -0.023547
    175 C36        89.9979   66.8310   34.7469 Y7         2 LUT     -0.393485
    176 C37        89.2557   64.7028   35.8515 Y7         2 LUT     -0.393485
    177 C38        86.1804   67.0776   32.3885 Y9         2 LUT     -0.387526
    178 C39        85.9865   67.9479   37.9129 W1         2 LUT     -0.322618
    179 C40        81.6861   66.8452   41.2641 W2         2 LUT     -0.358472
    180 H403       82.7758   66.8928   41.5033 R7         2 LUT      0.097720
    181 H402       81.3162   67.8621   41.0131 R7         2 LUT      0.097720
    182 H401       81.2385   66.5917   42.2502 R7         2 LUT      0.097720
    183 H393       86.3775   68.7645   37.3496 R4         2 LUT      0.082505
    184 H392       85.4437   68.3969   38.7301 R4         2 LUT      0.082505
    185 H391       86.6922   67.4863   38.4871 R4         2 LUT      0.082505
    186 H383       85.3639   66.7144   33.0388 R1         2 LUT      0.104030
    187 H382       86.1383   68.1392   32.5672 R1         2 LUT      0.104030
    188 H381       85.9273   66.8765   31.3432 R1         2 LUT      0.104030
    189 H373       90.2548   64.1944   35.9528 T4         2 LUT      0.089537
    190 H372       89.0019   65.1993   36.8129 T4         2 LUT      0.089537
    191 H371       88.6029   63.8127   35.8375 T4         2 LUT      0.089537
    192 H363       91.0790   66.6787   35.0003 T4         2 LUT      0.089537
    193 H362       90.0160   67.3699   33.7818 T4         2 LUT      0.089537
    194 H361       89.6571   67.4445   35.5729 T4         2 LUT      0.089537
    195 H222       90.8722   64.5334   33.6714 U2         2 LUT      0.127376
    196 H221       89.2465   63.8435   33.3230 U2         2 LUT      0.127376
    197 H203       75.9540   63.2662   39.8935 R7         2 LUT      0.087068
    198 H202       75.7117   61.8883   41.0129 R7         2 LUT      0.087068
    199 H201       74.4122   63.0327   40.5660 R7         2 LUT      0.087068
    200 H193       71.9548   60.5299   44.5908 R4         2 LUT      0.089716
    201 H192       70.4039   61.2673   44.5731 R4         2 LUT      0.089716
    202 H191       71.4780   61.6621   43.3273 R4         2 LUT      0.089716
    203 H183       69.4900   65.0471   46.8770 R1         2 LUT      0.094572
    204 H182       68.2026   63.9553   46.3900 R1         2 LUT      0.094572
    205 H181       67.9278   65.4999   47.2854 R1         2 LUT      0.094572
    206 H173       71.0566   63.1874   51.0738 T4         2 LUT      0.093752
    207 H172       70.9629   61.5686   51.6415 T4         2 LUT      0.093752
    208 H171       72.0165   61.8020   50.3406 T4         2 LUT      0.093752
    209 H163       71.3269   60.2325   48.7983 T4         2 LUT      0.093752
    210 H162       70.4196   59.6833   50.2683 T4         2 LUT      0.093752
    211 H161       69.5290   59.9464   48.7137 T4         2 LUT      0.093752
    212 HO3        68.0849   63.4999   52.5146 Q1         2 LUT      0.300121
    213 H8         71.5128   64.0907   46.7483 U7         2 LUT      0.080784
    214 H7         70.2126   61.3885   46.7889 U6         2 LUT      0.042190
    215 H42        66.9123   64.0938   48.9913 U5         2 LUT      0.145166
    216 H41        68.1204   65.0410   49.7866 U5         2 LUT      0.145166
    217 H35        79.1742   65.8776   41.9776 T3         2 LUT      0.077919
    218 H34        80.2475   64.2859   39.5134 T2         2 LUT      0.073626
    219 H32        82.2155   64.7204   38.4954 T1         2 LUT      0.092510
    220 H31        83.5683   67.1586   39.5394 U9         2 LUT      0.070048
    221 H30        83.6212   65.5873   36.8971 U8         2 LUT      0.085442
    222 H3         66.7697   62.8882   50.6805 U3         2 LUT     -0.031596
    223 H28        85.2126   65.6501   35.4064 U7         2 LUT      0.084728
    224 H27        87.6887   67.4293   35.8131 U6         2 LUT      0.087291
    225 H26        87.0861   64.8597   34.2159 Q6         2 LUT      0.075325
    226 H24        88.2513   66.5286   30.8573 Q5         2 LUT      0.094482
    227 H23        90.6648   65.9436   32.1607 U3         2 LUT     -0.024869
    228 H22        67.7873   61.2413   49.6146 U2         2 LUT      0.127376
    229 H21        68.4617   61.1020   51.1955 U2         2 LUT      0.127376
    230 H15        77.8439   63.8310   40.2574 T3         2 LUT      0.093200
    231 H14        76.9819   65.2103   42.8359 T2         2 LUT      0.068865
    232 H12        74.9057   64.7106   43.7713 T1         2 LUT      0.095507
    233 H11        73.4495   62.2065   42.7066 U9         2 LUT      0.068930
    234 H10        73.1524   64.3156   44.9276 U8         2 LUT      0.083911
    235 H1         90.1273   64.8052   30.2860 Q1         2 LUT      0.297311
@<TRIPOS>BOND
    1     6     1 1
    2     7     2 1
    3     8     3 1
    4     9     4 1
    5    11     4 1
    6    12     6 1
    7    13     9 1
    8    16     9 1
    9    25     5 1
   10    25    16 1
   11    26    10 1
   12    26    17 1
   13    27    18 1
   14    28    14 1
   15    28    19 1
   16    29    12 1
   17    30    13 1
   18    31    24 1
   19    32     1 1
   20    32    25 1
   21    33    21 1
   22    33    26 1
   23    34    22 1
   24    34    27 1
   25    35    23 1
   26    35    28 1
   27    36    12 1
   28    36    24 1
   29    37    13 1
   30    37    15 1
   31    38    31 1
   32    39    20 1
   33    39    32 1
   34    40     2 1
   35    40    33 1
   36    41     3 1
   37    41    34 1
   38    42     4 1
   39    42    35 1
   40    43    38 1
   41    44     5 1
   42    44    17 1
   43    44    39 1
   44    45    10 1
   45    45    18 1
   46    45    40 1
   47    46    19 1
   48    46    41 1
   49    47    14 1
   50    47    16 1
   51    47    42 1
   52    48    38 1
   53    49    48 1
   54    50    49 1
   55    51    50 1
   56    52    51 1
   57    53    51 1
   58    54    53 1
   59    55    54 1
   60    56    55 1
   61    57    56 1
   62    58    56 1
   63    59    58 1
   64    60    59 1
   65    61    60 1
   66    62    61 1
   67    63    61 1
   68    64    27 1
   69    64    46 1
   70    65     5 1
   71    65    10 1
   72    65    64 1
   73    65    14 1
   74    66    23 1
   75    67    23 1
   76    68    23 1
   77    69    22 1
   78    70    22 1
   79    71    22 1
   80    72    21 1
   81    73    21 1
   82    74    21 1
   83    75    20 1
   84    76    20 1
   85    77    20 1
   86    78    15 1
   87    79    15 1
   88    80    15 1
   89    81     8 1
   90    82     8 1
   91    83     8 1
   92    84     7 1
   93    85     7 1
   94    86     6 1
   95    87     6 1
   96    88     3 1
   97    89     3 1
   98    90     1 1
   99    91     1 1
  100    92    63 1
  101    93    63 1
  102    94    63 1
  103    95    62 1
  104    96    62 1
  105    97    62 1
  106    98    60 1
  107    99    60 1
  108   100    59 1
  109   101    59 1
  110   102    58 1
  111   103    58 1
  112   104    57 1
  113   105    57 1
  114   106    57 1
  115   107    55 1
  116   108    55 1
  117   109    54 1
  118   110    54 1
  119   111    53 1
  120   112    53 1
  121   113    19 1
  122   114    18 1
  123   115    17 1
  124   116     9 1
  125   117     2 1
  126   118    52 1
  127   119    52 1
  128   120    52 1
  129   121    51 1
  130   122    50 1
  131   123    50 1
  132   124    49 1
  133   125    49 1
  134   126    48 1
  135   127    48 1
  136   128    43 1
  137   129    43 1
  138   130    43 1
  139   131    39 1
  140   132    32 1
  141   133    31 1
  142   134    61 1
  143   135    56 1
  144   136    24 1
  145   137    24 1
  146   139   138 1
  147   140   139 1
  148   141   140 1
  149   142   140 1
  150   143   142 1
  151   144   138 1
  152   144   143 1
  153   145   144 1
  154   146   145 1
  155   147   146 1
  156   148   147 1
  157   149   148 1
  158   150   149 1
  159   151   150 1
  160   152   151 1
  161   153   152 1
  162   154   138 1
  163   155   138 1
  164   156   143 1
  165   157   147 1
  166   158   151 1
  167   160   159 1
  168   161   160 1
  169   162   161 1
  170   163   161 1
  171   164   163 1
  172   165   159 1
  173   165   164 1
  174   166   165 1
  175   167   166 1
  176   168   167 1
  177   169   168 1
  178   170   169 1
  179   171   170 1
  180   172   171 1
  181   173   172 1
  182   174   153 1
  183   174   173 1
  184   175   159 1
  185   176   159 1
  186   177   164 1
  187   178   168 1
  188   179   172 1
  189   180   179 1
  190   181   179 1
  191   182   179 1
  192   183   178 1
  193   184   178 1
  194   185   178 1
  195   186   177 1
  196   187   177 1
  197   188   177 1
  198   189   176 1
  199   190   176 1
  200   191   176 1
  201   192   175 1
  202   193   175 1
  203   194   175 1
  204   195   160 1
  205   196   160 1
  206   197   158 1
  207   198   158 1
  208   199   158 1
  209   200   157 1
  210   201   157 1
  211   202   157 1
  212   203   156 1
  213   204   156 1
  214   205   156 1
  215   206   155 1
  216   207   155 1
  217   208   155 1
  218   209   154 1
  219   210   154 1
  220   211   154 1
  221   212   141 1
  222   213   146 1
  223   214   145 1
  224   215   142 1
  225   216   142 1
  226   217   174 1
  227   218   173 1
  228   219   171 1
  229   220   170 1
  230   221   169 1
  231   222   140 1
  232   223   167 1
  233   224   166 1
  234   225   165 1
  235   226   163 1
  236   227   161 1
  237   228   139 1
  238   229   139 1
  239   230   153 1
  240   231   152 1
  241   232   150 1
  242   233   149 1
  243   234   148 1
  244   235   162 1
  245   65    153 1
  246   65    174 1
@<TRIPOS>SUBSTRUCTURE
      1 CLA               1 ****               0 ****  **** 
      2 LUT             138 ****               0 ****  **** 
