@<TRIPOS>MOLECULE
Cpptraj generated mol2 file.
  235   246     2     0     0
SMALL
USER_CHARGES


@<TRIPOS>ATOM
      1 CAA        77.3012   57.5033   33.9842 a2         1 CLA     -0.055900
      2 CAB        77.6679   61.2341   43.0028 c8         1 CLA     -0.148500
      3 CAC        70.7261   57.1842   42.8352 a2         1 CLA     -0.012600
      4 CAD        72.9444   54.9338   35.4365 ck         1 CLA      0.398800
      5 NA         76.4106   57.7694   37.3946 ns         1 CLA     -0.225500
      6 CBA        78.4467   57.2347   33.0367 a2         1 CLA     -0.135000
      7 CBB        78.8745   61.5033   43.5682 c0         1 CLA     -0.395200
      8 CBC        70.8118   55.6675   43.0437 a3         1 CLA     -0.037700
      9 CBD        74.4305   55.5088   34.9710 a1         1 CLA     -0.053900
     10 NB         76.4236   59.3749   40.0414 nm         1 CLA     -0.295700
     11 OBD        72.3177   54.0806   34.7940 o2         1 CLA     -0.494600
     12 CGA        78.8392   55.8127   32.5828 c4         1 CLA      0.827000
     13 CGD        75.3728   54.4093   34.5686 c4         1 CLA      0.655300
     14 ND         73.5738   57.0956   38.1552 nm         1 CLA     -0.291600
     15 CED        76.2108   52.2169   35.0544 a3         1 CLA      0.005400
     16 CHA        74.9284   56.4385   36.1462 cs         1 CLA     -0.123800
     17 CHB        78.2323   58.9703   38.4492 aa         1 CLA     -0.291900
     18 CHC        75.1830   59.7314   42.1485 aa         1 CLA     -0.090400
     19 CHD        71.8492   57.0343   39.8574 aa         1 CLA     -0.052000
     20 CMA        79.8263   56.9957   36.5416 a3         1 CLA     -0.230700
     21 CMB        79.7003   61.1527   40.3890 a3         1 CLA     -0.180800
     22 CMC        72.6991   59.3281   44.2481 a3         1 CLA     -0.134000
     23 CMD        70.3767   55.2516   37.7335 a3         1 CLA     -0.141100
     24 C1         79.6203   53.6172   33.2780 a2         1 CLA      0.023000
     25 C1A        76.1302   57.1166   36.3067 ac         1 CLA     -0.015100
     26 C1B        77.6824   59.5945   39.6524 cr         1 CLA      0.054700
     27 C1C        73.9807   59.0282   41.9093 cn         1 CLA     -0.005600
     28 C1D        72.3703   56.6254   38.6350 ap         1 CLA     -0.047300
     29 O1A        78.7741   55.3309   31.4759 o2         1 CLA     -0.610800
     30 O1D        76.1235   54.4350   33.5665 o2         1 CLA     -0.558200
     31 C2         80.3956   53.1068   34.4561 c8         1 CLA     -0.325100
     32 C2A        77.4365   56.9418   35.4624 a1         1 CLA      0.098600
     33 C2B        78.3446   60.5034   40.6472 cb         1 CLA      0.088500
     34 C2C        72.9013   58.6636   42.8694 cb         1 CLA      0.053700
     35 C2D        71.7742   55.7789   37.6387 cb         1 CLA      0.058900
     36 O2A        79.3195   55.0368   33.6449 o1         1 CLA     -0.437200
     37 O2D        75.4126   53.3842   35.5037 o1         1 CLA     -0.357600
     38 C3         81.3217   52.0912   34.5624 c5         1 CLA      0.031200
     39 C3A        78.5107   57.7643   36.2604 a1         1 CLA      0.166800
     40 C3B        77.4462   60.5392   41.6959 cb         1 CLA      0.035000
     41 C3C        72.0216   57.8335   42.2439 cb         1 CLA     -0.089900
     42 C3D        72.7197   55.6676   36.6275 cb         1 CLA     -0.035900
     43 C4         80.9278   50.6893   35.0685 a3         1 CLA     -0.053300
     44 C4A        77.7278   58.1727   37.4398 ac         1 CLA      0.001800
     45 C4B        76.3069   59.8457   41.3305 cn         1 CLA     -0.020900
     46 C4C        72.5005   57.7293   40.8622 cr         1 CLA     -0.044400
     47 C4D        73.8172   56.4236   36.9910 c6         1 CLA     -0.046000
     48 C5         82.7936   52.2159   34.2933 a2         1 CLA     -0.070400
     49 C6         83.5514   53.4558   34.8376 a2         1 CLA      0.043900
     50 C7         83.5855   53.4142   36.4438 a2         1 CLA     -0.150000
     51 C8         83.9062   54.8092   37.0795 a1         1 CLA      0.064200
     52 C9         85.3027   55.2667   36.7862 a3         1 CLA     -0.259300
     53 C10        83.6187   54.9405   38.6853 a2         1 CLA     -0.071900
     54 C11        82.0879   54.9761   39.0241 a2         1 CLA      0.014500
     55 C12        81.9477   55.0506   40.6003 a2         1 CLA     -0.112100
     56 C13        80.5924   55.4380   41.2369 a1         1 CLA      0.089200
     57 C14        79.9271   56.6238   40.5058 a3         1 CLA     -0.239100
     58 C15        80.7421   55.5592   42.8102 a2         1 CLA     -0.102200
     59 C16        81.0491   56.9582   43.4084 a2         1 CLA      0.023900
     60 C17        81.3514   56.7289   44.9447 a2         1 CLA     -0.105700
     61 C18        82.1927   57.8857   45.5862 a1         1 CLA      0.206800
     62 C19        83.6092   58.0085   45.0397 a3         1 CLA     -0.280100
     63 C20        81.3887   59.2194   45.3638 a3         1 CLA     -0.280100
     64 NC         73.7136   58.4091   40.7057 nx         1 CLA     -0.309200
     65 MG         75.0017   58.2766   39.0964 mg         1 CLA      0.895000
     66 HMD3       70.1924   54.9741   38.7795 dc         1 CLA      0.064300
     67 HMD2       69.6079   55.9609   37.5375 dc         1 CLA      0.064300
     68 HMD1       70.2741   54.4495   37.0152 dc         1 CLA      0.064300
     69 HMC3       71.9958   58.8640   44.8215 dc         1 CLA      0.052100
     70 HMC2       73.6675   59.1282   44.6255 dc         1 CLA      0.052100
     71 HMC1       72.3817   60.3941   44.1213 dc         1 CLA      0.052100
     72 HMB3       79.7679   62.1145   40.7478 dc         1 CLA      0.063600
     73 HMB2       80.4647   60.5427   40.9004 dc         1 CLA      0.063600
     74 HMB1       79.9734   61.0164   39.3293 dc         1 CLA      0.063600
     75 HMA3       80.2817   57.6355   37.2378 dc         1 CLA      0.058300
     76 HMA2       79.5672   56.0220   37.0156 dc         1 CLA      0.058300
     77 HMA1       80.5171   56.8241   35.6887 dc         1 CLA      0.058300
     78 HED3       75.8652   51.8751   34.0194 dc         1 CLA      0.079300
     79 HED2       77.2911   52.5057   34.9568 dc         1 CLA      0.079300
     80 HED1       76.1403   51.4389   35.8941 dc         1 CLA      0.079300
     81 HBC3       70.1629   55.2931   43.8473 dc         1 CLA      0.016300
     82 HBC2       70.6048   55.2041   42.1155 dc         1 CLA      0.016300
     83 HBC1       71.8224   55.4976   43.3406 dc         1 CLA      0.016300
     84 HBB2       79.0009   61.9862   44.6002 da         1 CLA      0.183000
     85 HBB1       79.8231   61.1626   43.1661 da         1 CLA      0.183000
     86 HBA2       78.2403   57.8786   32.1735 dc         1 CLA      0.029400
     87 HBA1       79.3653   57.6572   33.4379 dc         1 CLA      0.029400
     88 HAC2       70.5109   57.6862   43.7897 dc         1 CLA      0.029300
     89 HAC1       69.8154   57.3891   42.2454 dc         1 CLA      0.029300
     90 HAA2       76.3423   57.1611   33.6216 dc         1 CLA      0.028700
     91 HAA1       77.1686   58.6216   34.0405 dc         1 CLA      0.028700
     92 H203       81.1491   59.4246   44.3652 dc         1 CLA      0.065600
     93 H202       80.4505   59.1180   45.9270 dc         1 CLA      0.065600
     94 H201       82.0150   60.0473   45.7581 dc         1 CLA      0.065600
     95 H193       83.6869   58.2462   43.9713 dc         1 CLA      0.065600
     96 H192       84.2605   58.6754   45.5967 dc         1 CLA      0.065600
     97 H191       84.0643   57.0705   45.1262 dc         1 CLA      0.065600
     98 H172       80.4350   56.6824   45.4847 dc         1 CLA      0.027600
     99 H171       81.9734   55.8530   45.0951 dc         1 CLA      0.027600
    100 H162       81.9432   57.4386   43.0061 dc         1 CLA      0.002900
    101 H161       80.1836   57.6128   43.2474 dc         1 CLA      0.002900
    102 H152       79.8135   55.2966   43.2777 dc         1 CLA      0.029100
    103 H151       81.4086   54.8196   43.1195 dc         1 CLA      0.029100
    104 H143       78.9601   56.8930   40.9595 dc         1 CLA      0.063600
    105 H142       80.5010   57.5089   40.5899 dc         1 CLA      0.063600
    106 H141       79.6778   56.3953   39.4799 dc         1 CLA      0.063600
    107 H122       82.0945   54.0053   40.9230 dc         1 CLA      0.032500
    108 H121       82.7330   55.6550   41.0309 dc         1 CLA      0.032500
    109 H112       81.6844   55.9247   38.6605 dc         1 CLA      0.006600
    110 H111       81.6008   54.1353   38.5947 dc         1 CLA      0.006600
    111 H102       84.0990   54.1269   39.2038 dc         1 CLA      0.024100
    112 H101       83.9650   55.9174   39.1792 dc         1 CLA      0.024100
    113 HHD        70.8733   56.6959   40.1675 da         1 CLA      0.174300
    114 HHC        75.2473   60.0606   43.1756 da         1 CLA      0.136800
    115 HHB        79.2755   59.0615   38.3022 da         1 CLA      0.138300
    116 HBD        74.3288   56.1612   34.0757 dc         1 CLA      0.107700
    117 HAB        76.8055   61.4675   43.6061 da         1 CLA      0.155200
    118 H93        85.2862   55.2603   35.7244 dc         1 CLA      0.069500
    119 H92        85.4371   56.3448   36.8360 dc         1 CLA      0.069500
    120 H91        86.0768   54.7102   37.2633 dc         1 CLA      0.069500
    121 H8         83.1705   55.4871   36.5254 dc         1 CLA      0.029300
    122 H72        82.5948   52.9740   36.7952 dc         1 CLA      0.044400
    123 H71        84.2077   52.5575   36.7110 dc         1 CLA      0.044400
    124 H62        84.5282   53.4381   34.4524 dc         1 CLA      0.015600
    125 H61        83.0389   54.4021   34.5190 dc         1 CLA      0.015600
    126 H52        83.2485   51.4072   34.8561 dc         1 CLA      0.033200
    127 H51        83.0345   52.0705   33.2424 dc         1 CLA      0.033200
    128 H43        79.8113   50.6387   35.0167 dc         1 CLA      0.037000
    129 H42        81.1949   49.9912   34.2525 dc         1 CLA      0.037000
    130 H41        81.3040   50.5206   36.0527 dc         1 CLA      0.037000
    131 H3A        78.6643   58.6430   35.6987 dc         1 CLA      0.041100
    132 H2A        77.7397   55.8684   35.5137 dc         1 CLA      0.083100
    133 H2         80.2157   53.6450   35.3798 da         1 CLA      0.180900
    134 H18        82.2323   57.7229   46.6962 dc         1 CLA     -0.003900
    135 H13        79.9289   54.5967   41.0418 dc         1 CLA      0.019700
    136 H12        78.6718   53.0896   33.0323 dc         1 CLA      0.120400
    137 H11        80.2191   53.4571   32.3628 dc         1 CLA      0.120400
    138 C1         66.9402   61.1033   49.6232 Z1         2 LUT      0.509236
    139 C2         67.0317   62.3637   50.4970 Z2         2 LUT     -0.434695
    140 C3         65.8369   63.3114   50.5625 Z3         2 LUT      0.437453
    141 O3         66.4156   64.5798   50.9213 S1         2 LUT     -0.547129
    142 C4         65.0882   63.2443   49.1852 Z4         2 LUT     -0.468603
    143 C5         65.7278   62.5847   48.0301 Z5         2 LUT      0.279246
    144 C6         66.6360   61.5779   48.1183 Z6         2 LUT     -0.305473
    145 C7         67.6782   61.3174   47.1263 Z7         2 LUT      0.069402
    146 C8         68.4840   62.1378   46.4051 Z8         2 LUT     -0.191631
    147 C9         69.1429   61.7363   45.2070 Z9         2 LUT      0.196698
    148 C10        70.0956   62.6323   44.6932 Y1         2 LUT     -0.208611
    149 C11        70.8087   62.5115   43.4242 Y2         2 LUT      0.030784
    150 C12        72.0215   63.1538   43.1450 Y3         2 LUT     -0.220316
    151 C13        72.9258   62.9485   42.0725 Y4         2 LUT      0.215937
    152 C14        74.2095   63.5043   42.0788 Y5         2 LUT     -0.185793
    153 C15        75.3141   63.5294   41.1371 Y6         2 LUT     -0.057835
    154 C16        65.8449   60.2162   50.2718 Y7         2 LUT     -0.405615
    155 C17        68.2524   60.3326   49.8718 Y7         2 LUT     -0.405615
    156 C18        65.6865   63.5133   46.8474 Y9         2 LUT     -0.369639
    157 C19        68.8726   60.5096   44.2803 W1         2 LUT     -0.333362
    158 C20        72.4736   62.1112   40.9299 W2         2 LUT     -0.323439
    159 C21        86.1761   64.8264   34.3242 Z1         2 LUT      0.406104
    160 C22        86.9607   64.3829   33.0219 Z2         2 LUT     -0.404965
    161 C23        87.0758   65.4097   31.9227 Z3         2 LUT      0.391255
    162 O23        87.7104   64.6766   30.8105 S1         2 LUT     -0.528210
    163 C24        85.7083   66.1022   31.7425 W6         2 LUT     -0.258361
    164 C25        84.6350   66.0297   32.5683 Z5         2 LUT      0.133546
    165 C26        84.7139   65.2669   33.8952 W8         2 LUT     -0.147008
    166 C27        83.9003   65.9068   34.9508 Z7         2 LUT      0.023843
    167 C28        83.1426   65.2918   35.8537 Z8         2 LUT     -0.216987
    168 C29        82.4720   65.8296   37.0258 Z9         2 LUT      0.206524
    169 C30        81.4528   65.0162   37.6105 Y1         2 LUT     -0.215556
    170 C31        80.7045   65.3245   38.7745 Y2         2 LUT      0.025142
    171 C32        79.5902   64.5505   39.1925 Y3         2 LUT     -0.212209
    172 C33        78.7030   64.6864   40.3957 Y4         2 LUT      0.240937
    173 C34        77.5881   63.9507   40.4546 Y5         2 LUT     -0.218862
    174 C35        76.5571   64.0305   41.4273 Y6         2 LUT     -0.023547
    175 C36        87.1110   65.9541   34.8732 Y7         2 LUT     -0.393485
    176 C37        86.2486   63.6202   35.3148 Y7         2 LUT     -0.393485
    177 C38        83.2845   66.6299   32.1441 Y9         2 LUT     -0.387526
    178 C39        82.8989   67.1730   37.4644 W1         2 LUT     -0.322618
    179 C40        79.1267   65.6624   41.4669 W2         2 LUT     -0.358472
    180 H403       78.2081   66.0710   41.8607 R7         2 LUT      0.097720
    181 H402       79.7374   65.2336   42.2477 R7         2 LUT      0.097720
    182 H401       79.7390   66.5271   41.1622 R7         2 LUT      0.097720
    183 H393       83.9879   67.3544   37.3920 R4         2 LUT      0.082505
    184 H392       82.3688   67.9655   36.8151 R4         2 LUT      0.082505
    185 H391       82.7357   67.3855   38.4611 R4         2 LUT      0.082505
    186 H383       83.3974   67.1165   31.2073 R1         2 LUT      0.104030
    187 H382       82.4608   65.8761   32.0368 R1         2 LUT      0.104030
    188 H381       82.9691   67.3664   32.9712 R1         2 LUT      0.104030
    189 H373       85.7490   62.7499   34.8622 T4         2 LUT      0.089537
    190 H372       87.2844   63.1880   35.5121 T4         2 LUT      0.089537
    191 H371       85.7477   63.7932   36.2977 T4         2 LUT      0.089537
    192 H363       87.0769   66.8955   34.2616 T4         2 LUT      0.089537
    193 H362       86.7818   66.1799   35.9133 T4         2 LUT      0.089537
    194 H361       88.0907   65.5102   34.9314 T4         2 LUT      0.089537
    195 H222       87.9897   64.0720   33.2660 U2         2 LUT      0.127376
    196 H221       86.5243   63.4597   32.6135 U2         2 LUT      0.127376
    197 H203       71.5108   62.4344   40.6164 R7         2 LUT      0.087068
    198 H202       73.0850   62.2273   40.0144 R7         2 LUT      0.087068
    199 H201       72.2401   61.0971   41.0672 R7         2 LUT      0.087068
    200 H193       67.9876   60.0446   44.5934 R4         2 LUT      0.089716
    201 H192       68.4386   60.8074   43.2911 R4         2 LUT      0.089716
    202 H191       69.7813   59.9827   44.2000 R4         2 LUT      0.089716
    203 H183       64.6834   63.8344   46.7318 R1         2 LUT      0.094572
    204 H182       66.3951   64.3372   46.9444 R1         2 LUT      0.094572
    205 H181       65.9024   62.9082   45.9190 R1         2 LUT      0.094572
    206 H173       68.4441   60.0305   50.9045 T4         2 LUT      0.093752
    207 H172       68.2055   59.4781   49.2674 T4         2 LUT      0.093752
    208 H171       69.1433   60.8486   49.4869 T4         2 LUT      0.093752
    209 H163       65.8416   60.2135   51.4010 T4         2 LUT      0.093752
    210 H162       64.8379   60.4766   49.8988 T4         2 LUT      0.093752
    211 H161       66.0183   59.1856   49.8890 T4         2 LUT      0.093752
    212 HO3        65.6590   65.1629   51.1140 Q1         2 LUT      0.300121
    213 H8         68.5034   63.2277   46.5747 U7         2 LUT      0.080784
    214 H7         67.8732   60.3472   46.9323 U6         2 LUT      0.042190
    215 H42        64.0644   63.0048   49.3920 U5         2 LUT      0.145166
    216 H41        64.7735   64.2987   48.8805 U5         2 LUT      0.145166
    217 H35        76.7805   64.5362   42.3924 T3         2 LUT      0.077919
    218 H34        77.3233   63.3321   39.5464 T2         2 LUT      0.073626
    219 H32        79.1957   63.8173   38.4752 T1         2 LUT      0.092510
    220 H31        81.1233   66.1828   39.2752 U9         2 LUT      0.070048
    221 H30        81.2776   64.0578   37.2436 U8         2 LUT      0.085442
    222 H3         65.2681   62.7242   51.2759 U3         2 LUT     -0.031596
    223 H28        82.8412   64.2741   35.5644 U7         2 LUT      0.084728
    224 H27        83.9918   66.9067   35.1225 U6         2 LUT      0.087291
    225 H26        84.1735   64.3654   33.6120 Q6         2 LUT      0.075325
    226 H24        85.4907   66.6083   30.8114 Q5         2 LUT      0.094482
    227 H23        87.7622   66.1957   32.3795 U3         2 LUT     -0.024869
    228 H22        67.2408   62.0220   51.5290 U2         2 LUT      0.127376
    229 H21        67.9462   62.9629   50.2081 U2         2 LUT      0.127376
    230 H15        75.1855   62.9635   40.2122 T3         2 LUT      0.093200
    231 H14        74.4412   64.1058   42.9440 T2         2 LUT      0.068865
    232 H12        72.3432   63.8062   43.9380 T1         2 LUT      0.095507
    233 H11        70.6417   61.7611   42.6862 U9         2 LUT      0.068930
    234 H10        70.2710   63.5335   45.2893 U8         2 LUT      0.083911
    235 H1         87.4069   65.0405   29.9629 Q1         2 LUT      0.297311
@<TRIPOS>BOND
    1     6     1 1
    2     7     2 1
    3     8     3 1
    4     9     4 1
    5    11     4 1
    6    12     6 1
    7    13     9 1
    8    16     9 1
    9    25     5 1
   10    25    16 1
   11    26    10 1
   12    26    17 1
   13    27    18 1
   14    28    14 1
   15    28    19 1
   16    29    12 1
   17    30    13 1
   18    31    24 1
   19    32     1 1
   20    32    25 1
   21    33    21 1
   22    33    26 1
   23    34    22 1
   24    34    27 1
   25    35    23 1
   26    35    28 1
   27    36    12 1
   28    36    24 1
   29    37    13 1
   30    37    15 1
   31    38    31 1
   32    39    20 1
   33    39    32 1
   34    40     2 1
   35    40    33 1
   36    41     3 1
   37    41    34 1
   38    42     4 1
   39    42    35 1
   40    43    38 1
   41    44     5 1
   42    44    17 1
   43    44    39 1
   44    45    10 1
   45    45    18 1
   46    45    40 1
   47    46    19 1
   48    46    41 1
   49    47    14 1
   50    47    16 1
   51    47    42 1
   52    48    38 1
   53    49    48 1
   54    50    49 1
   55    51    50 1
   56    52    51 1
   57    53    51 1
   58    54    53 1
   59    55    54 1
   60    56    55 1
   61    57    56 1
   62    58    56 1
   63    59    58 1
   64    60    59 1
   65    61    60 1
   66    62    61 1
   67    63    61 1
   68    64    27 1
   69    64    46 1
   70    65     5 1
   71    65    10 1
   72    65    64 1
   73    65    14 1
   74    66    23 1
   75    67    23 1
   76    68    23 1
   77    69    22 1
   78    70    22 1
   79    71    22 1
   80    72    21 1
   81    73    21 1
   82    74    21 1
   83    75    20 1
   84    76    20 1
   85    77    20 1
   86    78    15 1
   87    79    15 1
   88    80    15 1
   89    81     8 1
   90    82     8 1
   91    83     8 1
   92    84     7 1
   93    85     7 1
   94    86     6 1
   95    87     6 1
   96    88     3 1
   97    89     3 1
   98    90     1 1
   99    91     1 1
  100    92    63 1
  101    93    63 1
  102    94    63 1
  103    95    62 1
  104    96    62 1
  105    97    62 1
  106    98    60 1
  107    99    60 1
  108   100    59 1
  109   101    59 1
  110   102    58 1
  111   103    58 1
  112   104    57 1
  113   105    57 1
  114   106    57 1
  115   107    55 1
  116   108    55 1
  117   109    54 1
  118   110    54 1
  119   111    53 1
  120   112    53 1
  121   113    19 1
  122   114    18 1
  123   115    17 1
  124   116     9 1
  125   117     2 1
  126   118    52 1
  127   119    52 1
  128   120    52 1
  129   121    51 1
  130   122    50 1
  131   123    50 1
  132   124    49 1
  133   125    49 1
  134   126    48 1
  135   127    48 1
  136   128    43 1
  137   129    43 1
  138   130    43 1
  139   131    39 1
  140   132    32 1
  141   133    31 1
  142   134    61 1
  143   135    56 1
  144   136    24 1
  145   137    24 1
  146   139   138 1
  147   140   139 1
  148   141   140 1
  149   142   140 1
  150   143   142 1
  151   144   138 1
  152   144   143 1
  153   145   144 1
  154   146   145 1
  155   147   146 1
  156   148   147 1
  157   149   148 1
  158   150   149 1
  159   151   150 1
  160   152   151 1
  161   153   152 1
  162   154   138 1
  163   155   138 1
  164   156   143 1
  165   157   147 1
  166   158   151 1
  167   160   159 1
  168   161   160 1
  169   162   161 1
  170   163   161 1
  171   164   163 1
  172   165   159 1
  173   165   164 1
  174   166   165 1
  175   167   166 1
  176   168   167 1
  177   169   168 1
  178   170   169 1
  179   171   170 1
  180   172   171 1
  181   173   172 1
  182   174   153 1
  183   174   173 1
  184   175   159 1
  185   176   159 1
  186   177   164 1
  187   178   168 1
  188   179   172 1
  189   180   179 1
  190   181   179 1
  191   182   179 1
  192   183   178 1
  193   184   178 1
  194   185   178 1
  195   186   177 1
  196   187   177 1
  197   188   177 1
  198   189   176 1
  199   190   176 1
  200   191   176 1
  201   192   175 1
  202   193   175 1
  203   194   175 1
  204   195   160 1
  205   196   160 1
  206   197   158 1
  207   198   158 1
  208   199   158 1
  209   200   157 1
  210   201   157 1
  211   202   157 1
  212   203   156 1
  213   204   156 1
  214   205   156 1
  215   206   155 1
  216   207   155 1
  217   208   155 1
  218   209   154 1
  219   210   154 1
  220   211   154 1
  221   212   141 1
  222   213   146 1
  223   214   145 1
  224   215   142 1
  225   216   142 1
  226   217   174 1
  227   218   173 1
  228   219   171 1
  229   220   170 1
  230   221   169 1
  231   222   140 1
  232   223   167 1
  233   224   166 1
  234   225   165 1
  235   226   163 1
  236   227   161 1
  237   228   139 1
  238   229   139 1
  239   230   153 1
  240   231   152 1
  241   232   150 1
  242   233   149 1
  243   234   148 1
  244   235   162 1
  245   65    153 1
  246   65    174 1
@<TRIPOS>SUBSTRUCTURE
      1 CLA               1 ****               0 ****  **** 
      2 LUT             138 ****               0 ****  **** 
