@<TRIPOS>MOLECULE
Cpptraj generated mol2 file.
  235   246     2     0     0
SMALL
USER_CHARGES


@<TRIPOS>ATOM
      1 CAA        78.3260   57.2990   34.7574 a2         1 CLA     -0.055900
      2 CAB        78.3596   61.9073   43.4129 c8         1 CLA     -0.148500
      3 CAC        71.5855   57.6649   43.4966 a2         1 CLA     -0.012600
      4 CAD        73.9278   55.1622   35.9933 ck         1 CLA      0.398800
      5 NA         77.3988   57.9405   38.2768 ns         1 CLA     -0.225500
      6 CBA        79.5204   56.9004   33.9131 a2         1 CLA     -0.135000
      7 CBB        79.3619   61.6712   44.3638 c0         1 CLA     -0.395200
      8 CBC        71.4860   56.0587   43.5171 a3         1 CLA     -0.037700
      9 CBD        75.5331   55.4819   35.7100 a1         1 CLA     -0.053900
     10 NB         77.2644   59.5478   40.7079 nm         1 CLA     -0.295700
     11 OBD        73.2429   54.4388   35.2756 o2         1 CLA     -0.494600
     12 CGA        79.8874   55.4187   33.6987 c4         1 CLA      0.827000
     13 CGD        76.4048   54.2953   35.5433 c4         1 CLA      0.655300
     14 ND         74.5918   57.1134   38.9312 nm         1 CLA     -0.291600
     15 CED        77.3063   52.5316   36.8710 a3         1 CLA      0.005400
     16 CHA        75.9802   56.4445   36.8694 cs         1 CLA     -0.123800
     17 CHB        79.2589   59.1814   39.2277 aa         1 CLA     -0.291900
     18 CHC        75.9832   60.0453   42.6570 aa         1 CLA     -0.090400
     19 CHD        72.7433   57.1334   40.5052 aa         1 CLA     -0.052000
     20 CMA        80.7345   56.8741   37.6590 a3         1 CLA     -0.230700
     21 CMB        80.4521   61.4252   41.0655 a3         1 CLA     -0.180800
     22 CMC        73.7289   59.7338   44.8435 a3         1 CLA     -0.134000
     23 CMD        71.2967   55.6054   38.1130 a3         1 CLA     -0.141100
     24 C1         80.8500   53.5403   34.8367 a2         1 CLA      0.023000
     25 C1A        77.1929   57.0897   37.1728 ac         1 CLA     -0.015100
     26 C1B        78.5353   59.7998   40.2776 cr         1 CLA      0.054700
     27 C1C        74.8007   59.2794   42.5236 cn         1 CLA     -0.005600
     28 C1D        73.2935   56.7789   39.2681 ap         1 CLA     -0.047300
     29 O1A        79.6472   54.7940   32.6733 o2         1 CLA     -0.610800
     30 O1D        77.1264   54.0433   34.5757 o2         1 CLA     -0.558200
     31 C2         81.4340   53.0926   36.1704 c8         1 CLA     -0.325100
     32 C2A        78.4649   56.8763   36.3303 a1         1 CLA      0.098600
     33 C2B        79.1762   60.7899   41.2050 cb         1 CLA      0.088500
     34 C2C        73.7699   59.1443   43.4423 cb         1 CLA      0.053700
     35 C2D        72.6470   56.0925   38.2303 cb         1 CLA      0.058900
     36 O2A        80.4920   54.9145   34.8358 o1         1 CLA     -0.437200
     37 O2D        76.4981   53.6650   36.7950 o1         1 CLA     -0.357600
     38 C3         81.8094   51.8392   36.5671 c5         1 CLA      0.031200
     39 C3A        79.5611   57.7063   37.1612 a1         1 CLA      0.166800
     40 C3B        78.2850   61.0486   42.2046 cb         1 CLA      0.035000
     41 C3C        72.8679   58.2309   42.8715 cb         1 CLA     -0.089900
     42 C3D        73.6292   55.8528   37.2716 cb         1 CLA     -0.035900
     43 C4         80.9951   50.8513   37.3720 a3         1 CLA     -0.053300
     44 C4A        78.7166   58.3135   38.3259 ac         1 CLA      0.001800
     45 C4B        77.1079   60.1693   41.8577 cn         1 CLA     -0.020900
     46 C4C        73.3462   57.9308   41.4997 cr         1 CLA     -0.044400
     47 C4D        74.8110   56.4808   37.7228 c6         1 CLA     -0.046000
     48 C5         83.2467   51.4586   36.3484 a2         1 CLA     -0.070400
     49 C6         84.3473   52.4420   36.7614 a2         1 CLA      0.043900
     50 C7         84.3499   52.6545   38.3542 a2         1 CLA     -0.150000
     51 C8         84.9734   54.0116   38.8089 a1         1 CLA      0.064200
     52 C9         86.4829   54.0053   38.5326 a3         1 CLA     -0.259300
     53 C10        84.7344   54.3097   40.3354 a2         1 CLA     -0.071900
     54 C11        83.2701   54.6335   40.7310 a2         1 CLA      0.014500
     55 C12        83.1945   55.7481   41.7845 a2         1 CLA     -0.112100
     56 C13        81.6816   56.1710   42.2436 a1         1 CLA      0.089200
     57 C14        80.9652   57.1294   41.2467 a3         1 CLA     -0.239100
     58 C15        81.7476   56.7880   43.7121 a2         1 CLA     -0.102200
     59 C16        82.6756   57.9181   43.8651 a2         1 CLA      0.023900
     60 C17        82.5335   58.5608   45.2542 a2         1 CLA     -0.105700
     61 C18        83.2008   59.9794   45.4972 a1         1 CLA      0.206800
     62 C19        82.5515   60.9258   46.5875 a3         1 CLA     -0.280100
     63 C20        84.7436   59.9426   45.7938 a3         1 CLA     -0.280100
     64 NC         74.5753   58.5404   41.3795 nx         1 CLA     -0.309200
     65 MG         75.9465   58.3670   39.7933 mg         1 CLA      0.895000
     66 HMD3       71.0108   54.9762   38.9392 dc         1 CLA      0.064300
     67 HMD2       70.6086   56.4778   38.1474 dc         1 CLA      0.064300
     68 HMD1       71.3136   54.9021   37.3023 dc         1 CLA      0.064300
     69 HMC3       74.1971   60.6889   44.7857 dc         1 CLA      0.052100
     70 HMC2       72.6959   59.9320   45.1569 dc         1 CLA      0.052100
     71 HMC1       74.0786   59.0328   45.6111 dc         1 CLA      0.052100
     72 HMB3       80.4011   62.4680   41.3738 dc         1 CLA      0.063600
     73 HMB2       81.2735   60.9744   41.6296 dc         1 CLA      0.063600
     74 HMB1       80.6961   61.3795   40.0169 dc         1 CLA      0.063600
     75 HMA3       81.4325   57.5471   38.3211 dc         1 CLA      0.058300
     76 HMA2       80.2842   56.0558   38.2483 dc         1 CLA      0.058300
     77 HMA1       81.2412   56.6695   36.7491 dc         1 CLA      0.058300
     78 HED3       77.0648   51.7452   36.1659 dc         1 CLA      0.079300
     79 HED2       78.3495   52.8598   36.8098 dc         1 CLA      0.079300
     80 HED1       77.1808   52.2244   37.9086 dc         1 CLA      0.079300
     81 HBC3       71.6506   55.5273   42.5236 dc         1 CLA      0.016300
     82 HBC2       72.2203   55.6407   44.2620 dc         1 CLA      0.016300
     83 HBC1       70.4670   55.7609   43.8290 dc         1 CLA      0.016300
     84 HBB2       79.3791   62.2456   45.2974 da         1 CLA      0.183000
     85 HBB1       80.1178   60.8980   44.2789 da         1 CLA      0.183000
     86 HBA2       79.3344   57.3005   32.8716 dc         1 CLA      0.029400
     87 HBA1       80.3174   57.5381   34.3057 dc         1 CLA      0.029400
     88 HAC2       71.4722   58.0220   44.5961 dc         1 CLA      0.029300
     89 HAC1       70.7523   58.0460   42.9832 dc         1 CLA      0.029300
     90 HAA2       77.4622   56.8330   34.3065 dc         1 CLA      0.028700
     91 HAA1       78.1550   58.3459   34.6169 dc         1 CLA      0.028700
     92 H203       85.2260   59.4238   44.9600 dc         1 CLA      0.065600
     93 H202       85.1752   60.9769   45.9017 dc         1 CLA      0.065600
     94 H201       84.8406   59.3306   46.7343 dc         1 CLA      0.065600
     95 H193       81.5759   61.2954   46.2858 dc         1 CLA      0.065600
     96 H192       82.5182   60.3323   47.4504 dc         1 CLA      0.065600
     97 H191       83.1866   61.8667   46.7091 dc         1 CLA      0.065600
     98 H172       81.4730   58.6278   45.3706 dc         1 CLA      0.027600
     99 H171       82.8135   57.9358   46.0824 dc         1 CLA      0.027600
    100 H162       83.6634   57.5461   43.8888 dc         1 CLA      0.002900
    101 H161       82.5271   58.6113   42.9968 dc         1 CLA      0.002900
    102 H152       80.7390   57.0829   44.0374 dc         1 CLA      0.029100
    103 H151       82.0536   55.9252   44.2831 dc         1 CLA      0.029100
    104 H143       81.7025   57.7199   40.6866 dc         1 CLA      0.063600
    105 H142       80.3504   56.5535   40.5408 dc         1 CLA      0.063600
    106 H141       80.3219   57.8073   41.8427 dc         1 CLA      0.063600
    107 H122       83.6469   55.2644   42.6589 dc         1 CLA      0.032500
    108 H121       83.7113   56.6330   41.4456 dc         1 CLA      0.032500
    109 H112       82.7092   55.0084   39.8633 dc         1 CLA      0.006600
    110 H111       82.8750   53.6789   41.0033 dc         1 CLA      0.006600
    111 H102       85.2025   53.5978   41.0088 dc         1 CLA      0.024100
    112 H101       85.3092   55.2272   40.4119 dc         1 CLA      0.024100
    113 HHD        71.8195   56.6836   40.7383 da         1 CLA      0.174300
    114 HHC        76.0112   60.6118   43.5141 da         1 CLA      0.136800
    115 HHB        80.3175   59.3550   39.0528 da         1 CLA      0.138300
    116 HBD        75.5964   56.1322   34.8217 dc         1 CLA      0.107700
    117 HAB        77.5257   62.5783   43.6434 da         1 CLA      0.155200
    118 H93        87.0288   53.3395   39.1877 dc         1 CLA      0.069500
    119 H92        86.6264   53.5825   37.4867 dc         1 CLA      0.069500
    120 H91        86.9108   55.0683   38.5015 dc         1 CLA      0.069500
    121 H8         84.5060   54.8324   38.2732 dc         1 CLA      0.029300
    122 H72        83.2950   52.5975   38.7036 dc         1 CLA      0.044400
    123 H71        84.8675   51.8350   38.9050 dc         1 CLA      0.044400
    124 H62        85.3782   52.1390   36.4492 dc         1 CLA      0.015600
    125 H61        84.1089   53.4044   36.2876 dc         1 CLA      0.015600
    126 H52        83.5254   50.5926   36.9694 dc         1 CLA      0.033200
    127 H51        83.4107   51.3129   35.3124 dc         1 CLA      0.033200
    128 H43        81.5525   50.5386   38.2764 dc         1 CLA      0.037000
    129 H42        80.0720   51.3291   37.7711 dc         1 CLA      0.037000
    130 H41        80.8573   49.9372   36.7977 dc         1 CLA      0.037000
    131 H3A        79.9206   58.4704   36.4865 dc         1 CLA      0.041100
    132 H2A        78.7118   55.8394   36.3211 dc         1 CLA      0.083100
    133 H2         81.6668   53.8888   36.8963 da         1 CLA      0.180900
    134 H18        83.0836   60.6045   44.5630 dc         1 CLA     -0.003900
    135 H13        81.0376   55.3400   42.4183 dc         1 CLA      0.019700
    136 H12        79.9319   53.0299   34.5353 dc         1 CLA      0.120400
    137 H11        81.6480   53.3057   34.1539 dc         1 CLA      0.120400
    138 C1         68.1993   61.2683   50.2177 Z1         2 LUT      0.509236
    139 C2         66.8447   60.9092   50.8166 Z2         2 LUT     -0.434695
    140 C3         65.8417   62.0002   50.9287 Z3         2 LUT      0.437453
    141 O3         65.7087   62.3254   52.3288 S1         2 LUT     -0.547129
    142 C4         66.1192   63.1851   50.0835 Z4         2 LUT     -0.468603
    143 C5         66.9912   63.0378   48.9388 Z5         2 LUT      0.279246
    144 C6         68.0638   62.1601   48.9452 Z6         2 LUT     -0.305473
    145 C7         68.5301   61.5572   47.6709 Z7         2 LUT      0.069402
    146 C8         69.3440   62.0885   46.7002 Z8         2 LUT     -0.191631
    147 C9         69.7105   61.6606   45.3464 Z9         2 LUT      0.196698
    148 C10        70.7078   62.3381   44.6770 Y1         2 LUT     -0.208611
    149 C11        71.3820   62.0731   43.3916 Y2         2 LUT      0.030784
    150 C12        72.3798   62.8180   42.9149 Y3         2 LUT     -0.220316
    151 C13        73.3583   62.4239   41.9012 Y4         2 LUT      0.215937
    152 C14        74.5425   63.2380   41.7638 Y5         2 LUT     -0.185793
    153 C15        75.6637   63.1067   40.9464 Y6         2 LUT     -0.057835
    154 C16        69.0916   60.0139   50.1381 Y7         2 LUT     -0.405615
    155 C17        68.9260   62.1035   51.2603 Y7         2 LUT     -0.405615
    156 C18        66.3986   63.4672   47.6268 Y9         2 LUT     -0.369639
    157 C19        68.9497   60.4903   44.6957 W1         2 LUT     -0.333362
    158 C20        72.8892   61.5418   40.7402 W2         2 LUT     -0.323439
    159 C21        86.9787   64.4679   35.3500 Z1         2 LUT      0.406104
    160 C22        87.6716   63.8912   34.1659 Z2         2 LUT     -0.404965
    161 C23        88.1306   64.8417   33.2004 Z3         2 LUT      0.391255
    162 O23        88.8290   64.0829   32.1992 S1         2 LUT     -0.528210
    163 C24        87.0349   65.7863   32.8315 W6         2 LUT     -0.258361
    164 C25        85.8826   65.9127   33.4720 Z5         2 LUT      0.133546
    165 C26        85.6528   65.0944   34.7985 W8         2 LUT     -0.147008
    166 C27        84.8288   65.8003   35.8175 Z7         2 LUT      0.023843
    167 C28        83.8888   65.2258   36.6278 Z8         2 LUT     -0.216987
    168 C29        83.0553   65.8687   37.6455 Z9         2 LUT      0.206524
    169 C30        82.0088   65.1357   38.0753 Y1         2 LUT     -0.215556
    170 C31        81.1277   65.3316   39.1075 Y2         2 LUT      0.025142
    171 C32        80.0538   64.5656   39.3480 Y3         2 LUT     -0.212209
    172 C33        78.9866   64.8130   40.2805 Y4         2 LUT      0.240937
    173 C34        77.9214   63.9140   40.3742 Y5         2 LUT     -0.218862
    174 C35        76.7198   63.9450   41.1054 Y6         2 LUT     -0.023547
    175 C36        87.9034   65.5164   36.1907 Y7         2 LUT     -0.393485
    176 C37        86.6664   63.3649   36.3930 Y7         2 LUT     -0.393485
    177 C38        84.7729   66.8195   32.8393 Y9         2 LUT     -0.387526
    178 C39        83.4335   67.2320   38.1976 W1         2 LUT     -0.322618
    179 C40        79.2014   65.9584   41.1986 W2         2 LUT     -0.358472
    180 H403       80.0688   65.7041   41.8513 R7         2 LUT      0.097720
    181 H402       79.3840   67.0044   40.8226 R7         2 LUT      0.097720
    182 H401       78.3342   66.0859   41.8883 R7         2 LUT      0.097720
    183 H393       84.5405   67.2812   38.4159 R4         2 LUT      0.082505
    184 H392       83.2279   68.0065   37.4524 R4         2 LUT      0.082505
    185 H391       82.9479   67.5754   39.1116 R4         2 LUT      0.082505
    186 H383       83.8057   66.4088   33.1308 R1         2 LUT      0.104030
    187 H382       84.8444   67.8767   33.1107 R1         2 LUT      0.104030
    188 H381       84.8911   66.7987   31.7345 R1         2 LUT      0.104030
    189 H373       86.1988   62.5288   35.8745 T4         2 LUT      0.089537
    190 H372       87.4854   62.8611   36.9525 T4         2 LUT      0.089537
    191 H371       86.0454   63.6972   37.2022 T4         2 LUT      0.089537
    192 H363       88.7672   65.0848   36.6460 T4         2 LUT      0.089537
    193 H362       88.2805   66.2833   35.5356 T4         2 LUT      0.089537
    194 H361       87.3107   65.9172   37.0921 T4         2 LUT      0.089537
    195 H222       88.4872   63.2467   34.4826 U2         2 LUT      0.127376
    196 H221       87.0013   63.1634   33.7529 U2         2 LUT      0.127376
    197 H203       73.7523   61.2752   40.0928 R7         2 LUT      0.087068
    198 H202       72.3350   60.6382   40.9961 R7         2 LUT      0.087068
    199 H201       72.2373   62.1167   40.0266 R7         2 LUT      0.087068
    200 H193       69.1921   59.4859   45.0573 R4         2 LUT      0.089716
    201 H192       67.8731   60.4923   44.9048 R4         2 LUT      0.089716
    202 H191       68.9878   60.4543   43.6378 R4         2 LUT      0.089716
    203 H183       66.2065   64.5354   47.5794 R1         2 LUT      0.094572
    204 H182       66.9258   63.1285   46.8303 R1         2 LUT      0.094572
    205 H181       65.4167   63.0765   47.5730 R1         2 LUT      0.094572
    206 H173       69.9854   62.2125   50.9654 T4         2 LUT      0.093752
    207 H172       68.4088   63.0765   51.3871 T4         2 LUT      0.093752
    208 H171       68.7972   61.6350   52.2560 T4         2 LUT      0.093752
    209 H163       69.3416   59.4731   51.0264 T4         2 LUT      0.093752
    210 H162       68.5632   59.3430   49.4845 T4         2 LUT      0.093752
    211 H161       70.0513   60.2230   49.7225 T4         2 LUT      0.093752
    212 HO3        65.1357   61.8551   52.9217 Q1         2 LUT      0.300121
    213 H8         69.7914   63.0259   47.0366 U7         2 LUT      0.080784
    214 H7         68.0185   60.6970   47.3426 U6         2 LUT      0.042190
    215 H42        65.1694   63.6051   49.7353 U5         2 LUT      0.145166
    216 H41        66.5066   63.9555   50.7294 U5         2 LUT      0.145166
    217 H35        76.7326   64.6747   41.9697 T3         2 LUT      0.077919
    218 H34        78.0436   63.0202   39.7210 T2         2 LUT      0.073626
    219 H32        79.8490   63.6706   38.8145 T1         2 LUT      0.092510
    220 H31        81.2546   66.2344   39.6229 U9         2 LUT      0.070048
    221 H30        81.8085   64.2863   37.4827 U8         2 LUT      0.085442
    222 H3         64.9468   61.5443   50.6831 U3         2 LUT     -0.031596
    223 H28        83.5857   64.2748   36.2738 U7         2 LUT      0.084728
    224 H27        85.1088   66.8607   35.9058 U6         2 LUT      0.087291
    225 H26        84.9569   64.3197   34.3894 Q6         2 LUT      0.075325
    226 H24        87.1190   66.2981   31.9308 Q5         2 LUT      0.094482
    227 H23        88.8558   65.4252   33.8239 U3         2 LUT     -0.024869
    228 H22        66.3314   60.1776   50.2015 U2         2 LUT      0.127376
    229 H21        67.0686   60.3203   51.7162 U2         2 LUT      0.127376
    230 H15        75.6630   62.3653   40.1051 T3         2 LUT      0.093200
    231 H14        74.5706   64.0918   42.4699 T2         2 LUT      0.068865
    232 H12        72.6569   63.6715   43.4695 T1         2 LUT      0.095507
    233 H11        71.2169   61.0696   42.8789 U9         2 LUT      0.068930
    234 H10        71.1107   63.1622   45.2343 U8         2 LUT      0.083911
    235 H1         88.2785   63.9390   31.4020 Q1         2 LUT      0.297311
@<TRIPOS>BOND
    1     6     1 1
    2     7     2 1
    3     8     3 1
    4     9     4 1
    5    11     4 1
    6    12     6 1
    7    13     9 1
    8    16     9 1
    9    25     5 1
   10    25    16 1
   11    26    10 1
   12    26    17 1
   13    27    18 1
   14    28    14 1
   15    28    19 1
   16    29    12 1
   17    30    13 1
   18    31    24 1
   19    32     1 1
   20    32    25 1
   21    33    21 1
   22    33    26 1
   23    34    22 1
   24    34    27 1
   25    35    23 1
   26    35    28 1
   27    36    12 1
   28    36    24 1
   29    37    13 1
   30    37    15 1
   31    38    31 1
   32    39    20 1
   33    39    32 1
   34    40     2 1
   35    40    33 1
   36    41     3 1
   37    41    34 1
   38    42     4 1
   39    42    35 1
   40    43    38 1
   41    44     5 1
   42    44    17 1
   43    44    39 1
   44    45    10 1
   45    45    18 1
   46    45    40 1
   47    46    19 1
   48    46    41 1
   49    47    14 1
   50    47    16 1
   51    47    42 1
   52    48    38 1
   53    49    48 1
   54    50    49 1
   55    51    50 1
   56    52    51 1
   57    53    51 1
   58    54    53 1
   59    55    54 1
   60    56    55 1
   61    57    56 1
   62    58    56 1
   63    59    58 1
   64    60    59 1
   65    61    60 1
   66    62    61 1
   67    63    61 1
   68    64    27 1
   69    64    46 1
   70    65     5 1
   71    65    10 1
   72    65    64 1
   73    65    14 1
   74    66    23 1
   75    67    23 1
   76    68    23 1
   77    69    22 1
   78    70    22 1
   79    71    22 1
   80    72    21 1
   81    73    21 1
   82    74    21 1
   83    75    20 1
   84    76    20 1
   85    77    20 1
   86    78    15 1
   87    79    15 1
   88    80    15 1
   89    81     8 1
   90    82     8 1
   91    83     8 1
   92    84     7 1
   93    85     7 1
   94    86     6 1
   95    87     6 1
   96    88     3 1
   97    89     3 1
   98    90     1 1
   99    91     1 1
  100    92    63 1
  101    93    63 1
  102    94    63 1
  103    95    62 1
  104    96    62 1
  105    97    62 1
  106    98    60 1
  107    99    60 1
  108   100    59 1
  109   101    59 1
  110   102    58 1
  111   103    58 1
  112   104    57 1
  113   105    57 1
  114   106    57 1
  115   107    55 1
  116   108    55 1
  117   109    54 1
  118   110    54 1
  119   111    53 1
  120   112    53 1
  121   113    19 1
  122   114    18 1
  123   115    17 1
  124   116     9 1
  125   117     2 1
  126   118    52 1
  127   119    52 1
  128   120    52 1
  129   121    51 1
  130   122    50 1
  131   123    50 1
  132   124    49 1
  133   125    49 1
  134   126    48 1
  135   127    48 1
  136   128    43 1
  137   129    43 1
  138   130    43 1
  139   131    39 1
  140   132    32 1
  141   133    31 1
  142   134    61 1
  143   135    56 1
  144   136    24 1
  145   137    24 1
  146   139   138 1
  147   140   139 1
  148   141   140 1
  149   142   140 1
  150   143   142 1
  151   144   138 1
  152   144   143 1
  153   145   144 1
  154   146   145 1
  155   147   146 1
  156   148   147 1
  157   149   148 1
  158   150   149 1
  159   151   150 1
  160   152   151 1
  161   153   152 1
  162   154   138 1
  163   155   138 1
  164   156   143 1
  165   157   147 1
  166   158   151 1
  167   160   159 1
  168   161   160 1
  169   162   161 1
  170   163   161 1
  171   164   163 1
  172   165   159 1
  173   165   164 1
  174   166   165 1
  175   167   166 1
  176   168   167 1
  177   169   168 1
  178   170   169 1
  179   171   170 1
  180   172   171 1
  181   173   172 1
  182   174   153 1
  183   174   173 1
  184   175   159 1
  185   176   159 1
  186   177   164 1
  187   178   168 1
  188   179   172 1
  189   180   179 1
  190   181   179 1
  191   182   179 1
  192   183   178 1
  193   184   178 1
  194   185   178 1
  195   186   177 1
  196   187   177 1
  197   188   177 1
  198   189   176 1
  199   190   176 1
  200   191   176 1
  201   192   175 1
  202   193   175 1
  203   194   175 1
  204   195   160 1
  205   196   160 1
  206   197   158 1
  207   198   158 1
  208   199   158 1
  209   200   157 1
  210   201   157 1
  211   202   157 1
  212   203   156 1
  213   204   156 1
  214   205   156 1
  215   206   155 1
  216   207   155 1
  217   208   155 1
  218   209   154 1
  219   210   154 1
  220   211   154 1
  221   212   141 1
  222   213   146 1
  223   214   145 1
  224   215   142 1
  225   216   142 1
  226   217   174 1
  227   218   173 1
  228   219   171 1
  229   220   170 1
  230   221   169 1
  231   222   140 1
  232   223   167 1
  233   224   166 1
  234   225   165 1
  235   226   163 1
  236   227   161 1
  237   228   139 1
  238   229   139 1
  239   230   153 1
  240   231   152 1
  241   232   150 1
  242   233   149 1
  243   234   148 1
  244   235   162 1
  245   65    153 1
  246   65    174 1
@<TRIPOS>SUBSTRUCTURE
      1 CLA               1 ****               0 ****  **** 
      2 LUT             138 ****               0 ****  **** 
