@<TRIPOS>MOLECULE
Cpptraj generated mol2 file.
  235   246     2     0     0
SMALL
USER_CHARGES


@<TRIPOS>ATOM
      1 CAA        78.6678   58.9284   33.9625 a2         1 CLA     -0.055900
      2 CAB        79.1473   62.1892   43.1455 c8         1 CLA     -0.148500
      3 CAC        72.0946   57.9355   42.6641 a2         1 CLA     -0.012600
      4 CAD        74.4120   56.6176   34.8699 ck         1 CLA      0.398800
      5 NA         77.8858   58.8712   37.4940 ns         1 CLA     -0.225500
      6 CBA        79.7272   59.0289   32.8965 a2         1 CLA     -0.135000
      7 CBB        80.2759   62.0512   43.8406 c0         1 CLA     -0.395200
      8 CBC        72.3680   56.4707   42.8516 a3         1 CLA     -0.037700
      9 CBD        75.9189   57.0523   34.6375 a1         1 CLA     -0.053900
     10 NB         77.7691   60.3553   40.1134 nm         1 CLA     -0.295700
     11 OBD        73.6596   56.1494   34.0252 o2         1 CLA     -0.494600
     12 CGA        80.2391   57.5914   32.3645 c4         1 CLA      0.827000
     13 CGD        76.7226   55.8208   34.0974 c4         1 CLA      0.655300
     14 ND         75.1147   58.0458   38.0378 nm         1 CLA     -0.291600
     15 CED        76.5930   53.6043   33.3983 a3         1 CLA      0.005400
     16 CHA        76.4318   57.7202   35.9401 cs         1 CLA     -0.123800
     17 CHB        79.6391   60.2846   38.4676 aa         1 CLA     -0.291900
     18 CHC        76.4064   60.5708   42.1630 aa         1 CLA     -0.090400
     19 CHD        73.2693   57.8113   39.6650 aa         1 CLA     -0.052000
     20 CMA        81.2333   58.0415   36.9296 a3         1 CLA     -0.230700
     21 CMB        80.9000   62.1647   40.5353 a3         1 CLA     -0.180800
     22 CMC        74.0974   59.8313   44.3537 a3         1 CLA     -0.134000
     23 CMD        71.7081   56.5836   37.0677 a3         1 CLA     -0.141100
     24 C1         80.8738   55.3948   33.2125 a2         1 CLA      0.023000
     25 C1A        77.7106   58.2007   36.2878 ac         1 CLA     -0.015100
     26 C1B        78.9452   60.7858   39.6067 cr         1 CLA      0.054700
     27 C1C        75.2615   59.7651   41.8934 cn         1 CLA     -0.005600
     28 C1D        73.8314   57.6616   38.3346 ap         1 CLA     -0.047300
     29 O1A        80.2980   57.2354   31.1989 o2         1 CLA     -0.610800
     30 O1D        77.7491   55.9895   33.4781 o2         1 CLA     -0.558200
     31 C2         81.5627   54.9680   34.5869 c8         1 CLA     -0.325100
     32 C2A        78.9321   58.2543   35.3855 a1         1 CLA      0.098600
     33 C2B        79.5858   61.5684   40.6709 cb         1 CLA      0.088500
     34 C2C        74.1212   59.5026   42.8160 cb         1 CLA      0.053700
     35 C2D        73.0912   57.0364   37.1834 cb         1 CLA      0.058900
     36 O2A        80.6278   56.8699   33.4676 o1         1 CLA     -0.437200
     37 O2D        76.0825   54.6154   34.3560 o1         1 CLA     -0.357600
     38 C3         82.4087   53.9190   34.7601 c5         1 CLA      0.031200
     39 C3A        79.9932   58.8982   36.4025 a1         1 CLA      0.166800
     40 C3B        78.8289   61.5975   41.8437 cb         1 CLA      0.035000
     41 C3C        73.2923   58.7060   42.0761 cb         1 CLA     -0.089900
     42 C3D        74.1373   56.9992   36.2393 cb         1 CLA     -0.035900
     43 C4         81.9122   52.5432   35.1096 a3         1 CLA     -0.053300
     44 C4A        79.0864   59.4701   37.5154 ac         1 CLA      0.001800
     45 C4B        77.5857   60.8891   41.4145 cn         1 CLA     -0.020900
     46 C4C        73.9025   58.3930   40.7976 cr         1 CLA     -0.044400
     47 C4D        75.2827   57.6201   36.7996 c6         1 CLA     -0.046000
     48 C5         83.8854   54.0177   34.5603 a2         1 CLA     -0.070400
     49 C6         84.5023   55.2828   35.1257 a2         1 CLA      0.043900
     50 C7         84.6248   55.1920   36.6782 a2         1 CLA     -0.150000
     51 C8         85.0779   56.4985   37.4236 a1         1 CLA      0.064200
     52 C9         86.5043   56.8837   36.9463 a3         1 CLA     -0.259300
     53 C10        85.2237   56.4059   38.9749 a2         1 CLA     -0.071900
     54 C11        83.7688   56.5668   39.5337 a2         1 CLA      0.014500
     55 C12        83.5587   56.3992   41.0067 a2         1 CLA     -0.112100
     56 C13        82.0938   56.6825   41.5333 a1         1 CLA      0.089200
     57 C14        81.4991   58.0670   41.1863 a3         1 CLA     -0.239100
     58 C15        81.9278   56.3080   43.1045 a2         1 CLA     -0.102200
     59 C16        82.6063   57.2278   44.1793 a2         1 CLA      0.023900
     60 C17        82.8126   56.4505   45.4905 a2         1 CLA     -0.105700
     61 C18        83.2003   57.2970   46.7071 a1         1 CLA      0.206800
     62 C19        83.0568   56.5114   48.0032 a3         1 CLA     -0.280100
     63 C20        84.6136   57.9310   46.5294 a3         1 CLA     -0.280100
     64 NC         75.0126   59.1267   40.7114 nx         1 CLA     -0.309200
     65 MG         76.4033   59.1838   38.9664 mg         1 CLA      0.895000
     66 HMD3       70.9756   57.3279   36.6998 dc         1 CLA      0.064300
     67 HMD2       71.6138   55.7149   36.4174 dc         1 CLA      0.064300
     68 HMD1       71.3654   56.1769   38.0195 dc         1 CLA      0.064300
     69 HMC3       73.6985   60.8581   44.3980 dc         1 CLA      0.052100
     70 HMC2       73.5459   59.0255   44.8017 dc         1 CLA      0.052100
     71 HMC1       75.1461   59.8089   44.6944 dc         1 CLA      0.052100
     72 HMB3       81.2223   62.3685   39.5488 dc         1 CLA      0.063600
     73 HMB2       80.7880   63.1048   40.9622 dc         1 CLA      0.063600
     74 HMB1       81.6628   61.4891   40.9686 dc         1 CLA      0.063600
     75 HMA3       81.6955   57.7179   35.9816 dc         1 CLA      0.058300
     76 HMA2       82.0377   58.6537   37.3048 dc         1 CLA      0.058300
     77 HMA1       81.0271   57.2417   37.7081 dc         1 CLA      0.058300
     78 HED3       77.6969   53.6150   33.4028 dc         1 CLA      0.079300
     79 HED2       76.2772   52.6012   33.7760 dc         1 CLA      0.079300
     80 HED1       76.2499   53.7010   32.3719 dc         1 CLA      0.079300
     81 HBC3       72.4430   55.9899   41.8821 dc         1 CLA      0.016300
     82 HBC2       73.3186   56.1715   43.2958 dc         1 CLA      0.016300
     83 HBC1       71.6805   56.0083   43.5164 dc         1 CLA      0.016300
     84 HBB2       80.3332   62.4563   44.9241 da         1 CLA      0.183000
     85 HBB1       81.1405   61.4737   43.4340 da         1 CLA      0.183000
     86 HBA2       79.4046   59.7079   32.1172 dc         1 CLA      0.029400
     87 HBA1       80.5881   59.5850   33.3385 dc         1 CLA      0.029400
     88 HAC2       71.9323   58.3980   43.5802 dc         1 CLA      0.029300
     89 HAC1       71.2421   58.1002   41.9711 dc         1 CLA      0.029300
     90 HAA2       77.8152   58.3057   33.5544 dc         1 CLA      0.028700
     91 HAA1       78.4091   59.9911   34.2255 dc         1 CLA      0.028700
     92 H203       84.7773   58.3456   45.5632 dc         1 CLA      0.065600
     93 H202       84.8777   58.6730   47.2544 dc         1 CLA      0.065600
     94 H201       85.2119   56.9852   46.6079 dc         1 CLA      0.065600
     95 H193       82.0523   56.0988   48.1103 dc         1 CLA      0.065600
     96 H192       83.8809   55.7614   48.0437 dc         1 CLA      0.065600
     97 H191       83.3357   57.1763   48.8106 dc         1 CLA      0.065600
     98 H172       81.8545   55.9242   45.6961 dc         1 CLA      0.027600
     99 H171       83.5621   55.6537   45.3980 dc         1 CLA      0.027600
    100 H162       83.6362   57.3618   43.9127 dc         1 CLA      0.002900
    101 H161       82.0546   58.1607   44.3963 dc         1 CLA      0.002900
    102 H152       80.9191   56.2707   43.3765 dc         1 CLA      0.029100
    103 H151       82.3715   55.3357   43.2757 dc         1 CLA      0.029100
    104 H143       80.5245   57.9386   41.6586 dc         1 CLA      0.063600
    105 H142       82.0854   58.8461   41.6529 dc         1 CLA      0.063600
    106 H141       81.4996   58.1426   40.0855 dc         1 CLA      0.063600
    107 H122       83.7625   55.3282   41.2908 dc         1 CLA      0.032500
    108 H121       84.2916   57.0478   41.6342 dc         1 CLA      0.032500
    109 H112       83.4474   57.5781   39.2928 dc         1 CLA      0.006600
    110 H111       83.1581   55.8139   38.9989 dc         1 CLA      0.006600
    111 H102       85.5827   55.4313   39.1843 dc         1 CLA      0.024100
    112 H101       85.8174   57.2740   39.4041 dc         1 CLA      0.024100
    113 HHD        72.2574   57.4993   39.7817 da         1 CLA      0.174300
    114 HHC        76.3481   61.0815   43.0974 da         1 CLA      0.136800
    115 HHB        80.5906   60.7095   38.2837 da         1 CLA      0.138300
    116 HBD        75.8577   57.7137   33.7818 dc         1 CLA      0.107700
    117 HAB        78.2923   62.7207   43.6864 da         1 CLA      0.155200
    118 H93        87.1348   56.0157   36.4777 dc         1 CLA      0.069500
    119 H92        86.3617   57.6053   36.1390 dc         1 CLA      0.069500
    120 H91        87.1158   57.3787   37.7439 dc         1 CLA      0.069500
    121 H8         84.5087   57.3795   37.0555 dc         1 CLA      0.029300
    122 H72        83.5801   54.9813   36.9524 dc         1 CLA      0.044400
    123 H71        85.1721   54.3445   37.0469 dc         1 CLA      0.044400
    124 H62        85.4752   55.2971   34.6162 dc         1 CLA      0.015600
    125 H61        83.8994   56.1768   34.7995 dc         1 CLA      0.015600
    126 H52        84.3143   53.0903   34.8565 dc         1 CLA      0.033200
    127 H51        84.0661   54.0989   33.5144 dc         1 CLA      0.033200
    128 H43        80.8452   52.5779   35.3515 dc         1 CLA      0.037000
    129 H42        82.1717   51.7825   34.3325 dc         1 CLA      0.037000
    130 H41        82.4955   52.3103   36.0306 dc         1 CLA      0.037000
    131 H3A        80.4107   59.8145   35.8859 dc         1 CLA      0.041100
    132 H2A        79.3351   57.3093   35.1425 dc         1 CLA      0.083100
    133 H2         81.3189   55.6030   35.4710 da         1 CLA      0.180900
    134 H18        82.4341   58.0759   46.5565 dc         1 CLA     -0.003900
    135 H13        81.5280   55.9530   40.9751 dc         1 CLA      0.019700
    136 H12        80.0133   54.7217   33.2782 dc         1 CLA      0.120400
    137 H11        81.6025   55.2152   32.4134 dc         1 CLA      0.120400
    138 C1         68.5132   61.8034   50.2736 Z1         2 LUT      0.509236
    139 C2         67.1733   61.5567   50.9464 Z2         2 LUT     -0.434695
    140 C3         66.1677   62.6696   51.1612 Z3         2 LUT      0.437453
    141 O3         66.2213   63.2047   52.5133 S1         2 LUT     -0.547129
    142 C4         66.4096   63.7705   50.2317 Z4         2 LUT     -0.468603
    143 C5         67.1593   63.4396   48.9655 Z5         2 LUT      0.279246
    144 C6         68.1681   62.4962   48.9320 Z6         2 LUT     -0.305473
    145 C7         68.8845   61.9988   47.7784 Z7         2 LUT      0.069402
    146 C8         69.5740   62.7698   46.9129 Z8         2 LUT     -0.191631
    147 C9         70.2118   62.4598   45.6257 Z9         2 LUT      0.196698
    148 C10        71.3971   63.0726   45.3038 Y1         2 LUT     -0.208611
    149 C11        72.1086   62.9950   44.0126 Y2         2 LUT      0.030784
    150 C12        73.3209   63.6460   43.7773 Y3         2 LUT     -0.220316
    151 C13        74.0358   63.5105   42.4859 Y4         2 LUT      0.215937
    152 C14        75.2671   64.0843   42.4967 Y5         2 LUT     -0.185793
    153 C15        76.3298   64.1040   41.5524 Y6         2 LUT     -0.057835
    154 C16        69.3266   60.5330   50.1795 Y7         2 LUT     -0.405615
    155 C17        69.3138   62.7331   51.2455 Y7         2 LUT     -0.405615
    156 C18        66.6515   64.2692   47.7966 Y9         2 LUT     -0.369639
    157 C19        69.6699   61.3415   44.7652 W1         2 LUT     -0.333362
    158 C20        73.4516   62.6951   41.4022 W2         2 LUT     -0.323439
    159 C21        87.0245   65.6951   34.8628 Z1         2 LUT      0.406104
    160 C22        87.6915   64.9874   33.6665 Z2         2 LUT     -0.404965
    161 C23        87.9067   65.9160   32.4603 Z3         2 LUT      0.391255
    162 O23        88.1257   65.0472   31.3474 S1         2 LUT     -0.528210
    163 C24        86.5914   66.6385   32.1488 W6         2 LUT     -0.258361
    164 C25        85.5245   66.6734   33.0022 Z5         2 LUT      0.133546
    165 C26        85.5712   66.0985   34.3430 W8         2 LUT     -0.147008
    166 C27        84.8764   66.8610   35.3617 Z7         2 LUT      0.023843
    167 C28        83.8685   66.4080   36.0868 Z8         2 LUT     -0.216987
    168 C29        83.2188   66.8874   37.3161 Z9         2 LUT      0.206524
    169 C30        82.1515   66.1340   37.8230 Y1         2 LUT     -0.215556
    170 C31        81.4166   66.3102   39.0600 Y2         2 LUT      0.025142
    171 C32        80.4102   65.4922   39.5614 Y3         2 LUT     -0.212209
    172 C33        79.6843   65.6561   40.8348 Y4         2 LUT      0.240937
    173 C34        78.4830   64.9541   40.8588 Y5         2 LUT     -0.218862
    174 C35        77.3920   64.9384   41.7794 Y6         2 LUT     -0.023547
    175 C36        87.9902   66.7814   35.5470 Y7         2 LUT     -0.393485
    176 C37        86.8231   64.6090   35.9687 Y7         2 LUT     -0.393485
    177 C38        84.2204   67.3975   32.5480 Y9         2 LUT     -0.387526
    178 C39        83.6823   68.1531   37.9904 W1         2 LUT     -0.322618
    179 C40        80.0023   66.6893   41.8010 W2         2 LUT     -0.358472
    180 H403       80.9893   66.5471   42.2322 R7         2 LUT      0.097720
    181 H402       80.1011   67.6333   41.2986 R7         2 LUT      0.097720
    182 H401       79.3002   66.6780   42.5973 R7         2 LUT      0.097720
    183 H393       84.7031   67.9807   38.3905 R4         2 LUT      0.082505
    184 H392       83.6441   68.9602   37.2794 R4         2 LUT      0.082505
    185 H391       83.1504   68.4795   38.8992 R4         2 LUT      0.082505
    186 H383       83.4011   66.6901   32.8216 R1         2 LUT      0.104030
    187 H382       83.9724   68.3287   33.0942 R1         2 LUT      0.104030
    188 H381       84.1777   67.6564   31.4607 R1         2 LUT      0.104030
    189 H373       86.3118   63.7066   35.5927 T4         2 LUT      0.089537
    190 H372       87.8357   64.2583   36.2685 T4         2 LUT      0.089537
    191 H371       86.3320   64.8302   36.8619 T4         2 LUT      0.089537
    192 H363       89.0806   66.5159   35.6225 T4         2 LUT      0.089537
    193 H362       87.8061   67.7453   35.0328 T4         2 LUT      0.089537
    194 H361       87.6641   66.8918   36.5340 T4         2 LUT      0.089537
    195 H222       88.6123   64.5962   33.9887 U2         2 LUT      0.127376
    196 H221       87.1352   64.1355   33.4215 U2         2 LUT      0.127376
    197 H203       73.0322   61.7755   41.7111 R7         2 LUT      0.087068
    198 H202       72.6095   63.1379   40.8513 R7         2 LUT      0.087068
    199 H201       74.2644   62.5228   40.6925 R7         2 LUT      0.087068
    200 H193       69.0633   61.8505   43.9703 R4         2 LUT      0.089716
    201 H192       70.4920   60.7794   44.2484 R4         2 LUT      0.089716
    202 H191       69.0236   60.5430   45.1972 R4         2 LUT      0.089716
    203 H183       67.1497   65.1671   47.7385 R1         2 LUT      0.094572
    204 H182       66.9381   63.7929   46.8426 R1         2 LUT      0.094572
    205 H181       65.5352   64.3303   47.8429 R1         2 LUT      0.094572
    206 H173       69.3530   62.3298   52.2573 T4         2 LUT      0.093752
    207 H172       70.3842   62.8170   50.9475 T4         2 LUT      0.093752
    208 H171       68.8830   63.7283   51.3148 T4         2 LUT      0.093752
    209 H163       68.7187   59.7719   49.6611 T4         2 LUT      0.093752
    210 H162       70.3041   60.7133   49.7201 T4         2 LUT      0.093752
    211 H161       69.5509   60.2089   51.2623 T4         2 LUT      0.093752
    212 HO3        65.7376   62.6102   53.1236 Q1         2 LUT      0.300121
    213 H8         69.7997   63.7940   47.2217 U7         2 LUT      0.080784
    214 H7         68.8431   60.9540   47.5427 U6         2 LUT      0.042190
    215 H42        65.3676   64.0572   49.8699 U5         2 LUT      0.145166
    216 H41        66.6912   64.6815   50.7484 U5         2 LUT      0.145166
    217 H35        77.4246   65.4870   42.7128 T3         2 LUT      0.077919
    218 H34        78.2675   64.3958   39.9635 T2         2 LUT      0.073626
    219 H32        80.1457   64.7377   38.8913 T1         2 LUT      0.092510
    220 H31        81.6329   67.1885   39.7093 U9         2 LUT      0.070048
    221 H30        81.9597   65.2255   37.2655 U8         2 LUT      0.085442
    222 H3         65.1064   62.2788   50.9792 U3         2 LUT     -0.031596
    223 H28        83.3605   65.5593   35.7451 U7         2 LUT      0.084728
    224 H27        85.3603   67.7778   35.7968 U6         2 LUT      0.087291
    225 H26        85.0142   65.1901   34.2719 Q6         2 LUT      0.075325
    226 H24        86.4175   67.0407   31.1874 Q5         2 LUT      0.094482
    227 H23        88.8847   66.5073   32.6324 U3         2 LUT     -0.024869
    228 H22        66.6689   60.8271   50.3454 U2         2 LUT      0.127376
    229 H21        67.3492   61.0752   51.9168 U2         2 LUT      0.127376
    230 H15        76.3260   63.4998   40.6620 T3         2 LUT      0.093200
    231 H14        75.5095   64.6686   43.4018 T2         2 LUT      0.068865
    232 H12        73.6828   64.1782   44.6423 T1         2 LUT      0.095507
    233 H11        71.5577   62.3119   43.3622 U9         2 LUT      0.068930
    234 H10        71.8135   63.7813   45.9896 U8         2 LUT      0.083911
    235 H1         88.5573   65.5167   30.5644 Q1         2 LUT      0.297311
@<TRIPOS>BOND
    1     6     1 1
    2     7     2 1
    3     8     3 1
    4     9     4 1
    5    11     4 1
    6    12     6 1
    7    13     9 1
    8    16     9 1
    9    25     5 1
   10    25    16 1
   11    26    10 1
   12    26    17 1
   13    27    18 1
   14    28    14 1
   15    28    19 1
   16    29    12 1
   17    30    13 1
   18    31    24 1
   19    32     1 1
   20    32    25 1
   21    33    21 1
   22    33    26 1
   23    34    22 1
   24    34    27 1
   25    35    23 1
   26    35    28 1
   27    36    12 1
   28    36    24 1
   29    37    13 1
   30    37    15 1
   31    38    31 1
   32    39    20 1
   33    39    32 1
   34    40     2 1
   35    40    33 1
   36    41     3 1
   37    41    34 1
   38    42     4 1
   39    42    35 1
   40    43    38 1
   41    44     5 1
   42    44    17 1
   43    44    39 1
   44    45    10 1
   45    45    18 1
   46    45    40 1
   47    46    19 1
   48    46    41 1
   49    47    14 1
   50    47    16 1
   51    47    42 1
   52    48    38 1
   53    49    48 1
   54    50    49 1
   55    51    50 1
   56    52    51 1
   57    53    51 1
   58    54    53 1
   59    55    54 1
   60    56    55 1
   61    57    56 1
   62    58    56 1
   63    59    58 1
   64    60    59 1
   65    61    60 1
   66    62    61 1
   67    63    61 1
   68    64    27 1
   69    64    46 1
   70    65     5 1
   71    65    10 1
   72    65    64 1
   73    65    14 1
   74    66    23 1
   75    67    23 1
   76    68    23 1
   77    69    22 1
   78    70    22 1
   79    71    22 1
   80    72    21 1
   81    73    21 1
   82    74    21 1
   83    75    20 1
   84    76    20 1
   85    77    20 1
   86    78    15 1
   87    79    15 1
   88    80    15 1
   89    81     8 1
   90    82     8 1
   91    83     8 1
   92    84     7 1
   93    85     7 1
   94    86     6 1
   95    87     6 1
   96    88     3 1
   97    89     3 1
   98    90     1 1
   99    91     1 1
  100    92    63 1
  101    93    63 1
  102    94    63 1
  103    95    62 1
  104    96    62 1
  105    97    62 1
  106    98    60 1
  107    99    60 1
  108   100    59 1
  109   101    59 1
  110   102    58 1
  111   103    58 1
  112   104    57 1
  113   105    57 1
  114   106    57 1
  115   107    55 1
  116   108    55 1
  117   109    54 1
  118   110    54 1
  119   111    53 1
  120   112    53 1
  121   113    19 1
  122   114    18 1
  123   115    17 1
  124   116     9 1
  125   117     2 1
  126   118    52 1
  127   119    52 1
  128   120    52 1
  129   121    51 1
  130   122    50 1
  131   123    50 1
  132   124    49 1
  133   125    49 1
  134   126    48 1
  135   127    48 1
  136   128    43 1
  137   129    43 1
  138   130    43 1
  139   131    39 1
  140   132    32 1
  141   133    31 1
  142   134    61 1
  143   135    56 1
  144   136    24 1
  145   137    24 1
  146   139   138 1
  147   140   139 1
  148   141   140 1
  149   142   140 1
  150   143   142 1
  151   144   138 1
  152   144   143 1
  153   145   144 1
  154   146   145 1
  155   147   146 1
  156   148   147 1
  157   149   148 1
  158   150   149 1
  159   151   150 1
  160   152   151 1
  161   153   152 1
  162   154   138 1
  163   155   138 1
  164   156   143 1
  165   157   147 1
  166   158   151 1
  167   160   159 1
  168   161   160 1
  169   162   161 1
  170   163   161 1
  171   164   163 1
  172   165   159 1
  173   165   164 1
  174   166   165 1
  175   167   166 1
  176   168   167 1
  177   169   168 1
  178   170   169 1
  179   171   170 1
  180   172   171 1
  181   173   172 1
  182   174   153 1
  183   174   173 1
  184   175   159 1
  185   176   159 1
  186   177   164 1
  187   178   168 1
  188   179   172 1
  189   180   179 1
  190   181   179 1
  191   182   179 1
  192   183   178 1
  193   184   178 1
  194   185   178 1
  195   186   177 1
  196   187   177 1
  197   188   177 1
  198   189   176 1
  199   190   176 1
  200   191   176 1
  201   192   175 1
  202   193   175 1
  203   194   175 1
  204   195   160 1
  205   196   160 1
  206   197   158 1
  207   198   158 1
  208   199   158 1
  209   200   157 1
  210   201   157 1
  211   202   157 1
  212   203   156 1
  213   204   156 1
  214   205   156 1
  215   206   155 1
  216   207   155 1
  217   208   155 1
  218   209   154 1
  219   210   154 1
  220   211   154 1
  221   212   141 1
  222   213   146 1
  223   214   145 1
  224   215   142 1
  225   216   142 1
  226   217   174 1
  227   218   173 1
  228   219   171 1
  229   220   170 1
  230   221   169 1
  231   222   140 1
  232   223   167 1
  233   224   166 1
  234   225   165 1
  235   226   163 1
  236   227   161 1
  237   228   139 1
  238   229   139 1
  239   230   153 1
  240   231   152 1
  241   232   150 1
  242   233   149 1
  243   234   148 1
  244   235   162 1
  245   65    153 1
  246   65    174 1
@<TRIPOS>SUBSTRUCTURE
      1 CLA               1 ****               0 ****  **** 
      2 LUT             138 ****               0 ****  **** 
