@<TRIPOS>MOLECULE
Cpptraj generated mol2 file.
  235   246     2     0     0
SMALL
USER_CHARGES


@<TRIPOS>ATOM
      1 CAA        78.5196   58.9984   33.8133 a2         1 CLA     -0.055900
      2 CAB        78.7138   62.1716   42.8776 c8         1 CLA     -0.148500
      3 CAC        71.5834   58.4448   42.1152 a2         1 CLA     -0.012600
      4 CAD        74.1971   56.8334   34.5067 ck         1 CLA      0.398800
      5 NA         77.5353   59.2526   37.1734 ns         1 CLA     -0.225500
      6 CBA        79.8578   59.0033   33.0457 a2         1 CLA     -0.135000
      7 CBB        79.8909   62.0779   43.6097 c0         1 CLA     -0.395200
      8 CBC        71.7049   56.9034   42.2098 a3         1 CLA     -0.037700
      9 CBD        75.7198   57.1942   34.3444 a1         1 CLA     -0.053900
     10 NB         77.4319   60.6356   39.7755 nm         1 CLA     -0.295700
     11 OBD        73.6195   56.3328   33.5597 o2         1 CLA     -0.494600
     12 CGA        80.3360   57.6536   32.4819 c4         1 CLA      0.827000
     13 CGD        76.4523   55.8995   34.3081 c4         1 CLA      0.655300
     14 ND         74.6946   58.3594   37.7210 nm         1 CLA     -0.291600
     15 CED        76.6060   53.6438   35.1458 a3         1 CLA      0.005400
     16 CHA        76.0335   58.0095   35.6362 cs         1 CLA     -0.123800
     17 CHB        79.3900   60.4443   38.2203 aa         1 CLA     -0.291900
     18 CHC        76.1224   60.8008   41.9531 aa         1 CLA     -0.090400
     19 CHD        72.8186   58.3466   39.2791 aa         1 CLA     -0.052000
     20 CMA        80.8763   58.2852   36.6178 a3         1 CLA     -0.230700
     21 CMB        80.7910   62.2078   40.3800 a3         1 CLA     -0.180800
     22 CMC        73.7956   60.2480   43.9303 a3         1 CLA     -0.134000
     23 CMD        71.3197   56.8098   36.7128 a3         1 CLA     -0.141100
     24 C1         81.0236   55.4620   32.9481 a2         1 CLA      0.023000
     25 C1A        77.2989   58.5837   35.9818 ac         1 CLA     -0.015100
     26 C1B        78.8087   60.8490   39.4220 cr         1 CLA      0.054700
     27 C1C        74.9349   60.1434   41.5624 cn         1 CLA     -0.005600
     28 C1D        73.4226   57.9712   38.0518 ap         1 CLA     -0.047300
     29 O1A        80.2349   57.2834   31.2937 o2         1 CLA     -0.610800
     30 O1D        77.3925   55.6562   33.5154 o2         1 CLA     -0.558200
     31 C2         81.3898   54.5780   34.0977 c8         1 CLA     -0.325100
     32 C2A        78.6126   58.3918   35.2150 a1         1 CLA      0.098600
     33 C2B        79.4067   61.6467   40.4931 cb         1 CLA      0.088500
     34 C2C        73.8268   59.8134   42.5142 cb         1 CLA      0.053700
     35 C2D        72.7794   57.2174   36.9047 cb         1 CLA      0.058900
     36 O2A        80.7684   56.7950   33.5180 o1         1 CLA     -0.437200
     37 O2D        76.0696   55.0192   35.2520 o1         1 CLA     -0.357600
     38 C3         82.1283   53.4734   33.9110 c5         1 CLA      0.031200
     39 C3A        79.7023   59.1521   36.0425 a1         1 CLA      0.166800
     40 C3B        78.4740   61.6697   41.5350 cb         1 CLA      0.035000
     41 C3C        72.8786   59.1280   41.7352 cb         1 CLA     -0.089900
     42 C3D        73.7886   57.2242   35.9116 cb         1 CLA     -0.035900
     43 C4         81.5448   52.0752   33.7817 a3         1 CLA     -0.053300
     44 C4A        78.8530   59.7071   37.2192 ac         1 CLA      0.001800
     45 C4B        77.2373   61.0993   41.0742 cn         1 CLA     -0.020900
     46 C4C        73.4941   58.9762   40.3830 cr         1 CLA     -0.044400
     47 C4D        74.9105   57.9358   36.4387 c6         1 CLA     -0.046000
     48 C5         83.6209   53.4036   33.9911 a2         1 CLA     -0.070400
     49 C6         84.4124   54.6387   34.5721 a2         1 CLA      0.043900
     50 C7         84.1774   54.9223   36.0543 a2         1 CLA     -0.150000
     51 C8         84.9972   56.1719   36.6833 a1         1 CLA      0.064200
     52 C9         86.4619   56.2988   36.1818 a3         1 CLA     -0.259300
     53 C10        84.8556   56.2848   38.2754 a2         1 CLA     -0.071900
     54 C11        83.4466   56.7019   38.7948 a2         1 CLA      0.014500
     55 C12        83.4198   56.6692   40.2866 a2         1 CLA     -0.112100
     56 C13        82.0604   57.0016   40.9311 a1         1 CLA      0.089200
     57 C14        81.6107   58.4373   40.7505 a3         1 CLA     -0.239100
     58 C15        82.0622   56.6180   42.4359 a2         1 CLA     -0.102200
     59 C16        82.7197   57.5181   43.4857 a2         1 CLA      0.023900
     60 C17        82.4686   56.7497   44.8633 a2         1 CLA     -0.105700
     61 C18        82.7023   57.4691   46.1923 a1         1 CLA      0.206800
     62 C19        82.4919   56.5427   47.4096 a3         1 CLA     -0.280100
     63 C20        83.9479   58.3289   46.2465 a3         1 CLA     -0.280100
     64 NC         74.7433   59.5514   40.3179 nx         1 CLA     -0.309200
     65 MG         76.1146   59.6139   38.7072 mg         1 CLA      0.895000
     66 HMD3       70.7949   57.6957   36.4028 dc         1 CLA      0.064300
     67 HMD2       71.1990   55.8974   36.0916 dc         1 CLA      0.064300
     68 HMD1       70.9132   56.5040   37.7282 dc         1 CLA      0.064300
     69 HMC3       72.7727   60.3478   44.2692 dc         1 CLA      0.052100
     70 HMC2       74.3213   59.4309   44.4026 dc         1 CLA      0.052100
     71 HMC1       74.3000   61.2180   43.9864 dc         1 CLA      0.052100
     72 HMB3       81.4359   61.3491   40.7262 dc         1 CLA      0.063600
     73 HMB2       81.1417   62.5986   39.4007 dc         1 CLA      0.063600
     74 HMB1       81.0271   63.0579   41.0369 dc         1 CLA      0.063600
     75 HMA3       81.4608   58.7529   37.3472 dc         1 CLA      0.058300
     76 HMA2       80.5721   57.3962   37.1476 dc         1 CLA      0.058300
     77 HMA1       81.4580   57.9856   35.7164 dc         1 CLA      0.058300
     78 HED3       76.0225   52.9916   35.7946 dc         1 CLA      0.079300
     79 HED2       76.4563   53.2283   34.1329 dc         1 CLA      0.079300
     80 HED1       77.6362   53.4932   35.4713 dc         1 CLA      0.079300
     81 HBC3       71.9496   56.5257   41.1836 dc         1 CLA      0.016300
     82 HBC2       72.5603   56.8100   42.8610 dc         1 CLA      0.016300
     83 HBC1       70.8353   56.3677   42.6744 dc         1 CLA      0.016300
     84 HBB2       80.1012   62.5610   44.5511 da         1 CLA      0.183000
     85 HBB1       80.6786   61.4219   43.2437 da         1 CLA      0.183000
     86 HBA2       79.7799   59.7301   32.1616 dc         1 CLA      0.029400
     87 HBA1       80.6240   59.5792   33.6378 dc         1 CLA      0.029400
     88 HAC2       71.1334   58.8589   43.0132 dc         1 CLA      0.029300
     89 HAC1       70.9459   58.5458   41.2463 dc         1 CLA      0.029300
     90 HAA2       77.7771   58.4448   33.2892 dc         1 CLA      0.028700
     91 HAA1       78.2042   60.0733   34.0194 dc         1 CLA      0.028700
     92 H203       83.9268   58.9773   45.3554 dc         1 CLA      0.065600
     93 H202       84.0480   58.9370   47.1870 dc         1 CLA      0.065600
     94 H201       84.8945   57.8183   46.1428 dc         1 CLA      0.065600
     95 H193       81.5087   56.1112   47.4241 dc         1 CLA      0.065600
     96 H192       83.2351   55.8520   47.4937 dc         1 CLA      0.065600
     97 H191       82.6319   57.0934   48.3163 dc         1 CLA      0.065600
     98 H172       81.4641   56.2810   44.9122 dc         1 CLA      0.027600
     99 H171       83.0338   55.8186   44.9131 dc         1 CLA      0.027600
    100 H162       83.7825   57.4284   43.2687 dc         1 CLA      0.002900
    101 H161       82.3761   58.5665   43.5951 dc         1 CLA      0.002900
    102 H152       80.9978   56.7817   42.6690 dc         1 CLA      0.029100
    103 H151       82.2537   55.5966   42.4926 dc         1 CLA      0.029100
    104 H143       82.3683   59.1323   41.2139 dc         1 CLA      0.063600
    105 H142       81.5242   58.6602   39.6657 dc         1 CLA      0.063600
    106 H141       80.6262   58.5185   41.3319 dc         1 CLA      0.063600
    107 H122       83.7258   55.7413   40.6676 dc         1 CLA      0.032500
    108 H121       84.0657   57.4175   40.6573 dc         1 CLA      0.032500
    109 H112       83.3001   57.6531   38.3517 dc         1 CLA      0.006600
    110 H111       82.7294   55.9606   38.4529 dc         1 CLA      0.006600
    111 H102       85.1340   55.3874   38.7116 dc         1 CLA      0.024100
    112 H101       85.5803   57.0063   38.5906 dc         1 CLA      0.024100
    113 HHD        71.8014   58.0339   39.4382 da         1 CLA      0.174300
    114 HHC        76.2232   61.0985   43.0186 da         1 CLA      0.136800
    115 HHB        80.4057   60.8430   38.2590 da         1 CLA      0.138300
    116 HBD        75.7407   57.7662   33.4242 dc         1 CLA      0.107700
    117 HAB        77.9424   62.7762   43.2837 da         1 CLA      0.155200
    118 H93        86.5125   56.6203   35.1748 dc         1 CLA      0.069500
    119 H92        87.0092   57.0473   36.7766 dc         1 CLA      0.069500
    120 H91        86.9892   55.2943   36.3760 dc         1 CLA      0.069500
    121 H8         84.4790   57.0448   36.1947 dc         1 CLA      0.029300
    122 H72        83.1180   55.1995   36.2012 dc         1 CLA      0.044400
    123 H71        84.4837   53.9874   36.4562 dc         1 CLA      0.044400
    124 H62        85.4674   54.4118   34.4406 dc         1 CLA      0.015600
    125 H61        84.2230   55.5326   34.0565 dc         1 CLA      0.015600
    126 H52        83.8707   52.4968   34.5900 dc         1 CLA      0.033200
    127 H51        83.8377   53.1408   32.9537 dc         1 CLA      0.033200
    128 H43        81.8008   51.3198   34.5591 dc         1 CLA      0.037000
    129 H42        80.4490   52.0168   33.6505 dc         1 CLA      0.037000
    130 H41        82.0185   51.7779   32.8679 dc         1 CLA      0.037000
    131 H3A        80.0302   60.0825   35.5593 dc         1 CLA      0.041100
    132 H2A        78.8380   57.3533   35.1575 dc         1 CLA      0.083100
    133 H2         80.9650   54.8275   35.0782 da         1 CLA      0.180900
    134 H18        81.8744   58.1512   46.3913 dc         1 CLA     -0.003900
    135 H13        81.3095   56.3718   40.4990 dc         1 CLA      0.019700
    136 H12        79.9835   55.0662   32.5603 dc         1 CLA      0.120400
    137 H11        81.7416   55.4202   32.1362 dc         1 CLA      0.120400
    138 C1         68.4815   61.2123   49.7520 Z1         2 LUT      0.509236
    139 C2         67.0694   60.9015   50.1758 Z2         2 LUT     -0.434695
    140 C3         66.2647   62.1199   50.6728 Z3         2 LUT      0.437453
    141 O3         65.9832   62.1799   52.0883 S1         2 LUT     -0.547129
    142 C4         66.7526   63.4613   50.0621 Z4         2 LUT     -0.468603
    143 C5         67.6143   63.3648   48.8334 Z5         2 LUT      0.279246
    144 C6         68.4755   62.3498   48.6498 Z6         2 LUT     -0.305473
    145 C7         68.8588   62.0194   47.3042 Z7         2 LUT      0.069402
    146 C8         69.8012   62.6460   46.5555 Z8         2 LUT     -0.191631
    147 C9         70.2176   62.1973   45.1829 Z9         2 LUT      0.196698
    148 C10        71.2582   62.9914   44.6851 Y1         2 LUT     -0.208611
    149 C11        71.9455   62.9027   43.4345 Y2         2 LUT      0.030784
    150 C12        73.0817   63.5588   43.1445 Y3         2 LUT     -0.220316
    151 C13        74.0379   63.4220   42.0778 Y4         2 LUT      0.215937
    152 C14        75.1117   64.3032   42.1210 Y5         2 LUT     -0.185793
    153 C15        76.1164   64.4486   41.2452 Y6         2 LUT     -0.057835
    154 C16        69.1136   59.8706   49.2665 Y7         2 LUT     -0.405615
    155 C17        69.2997   61.6834   50.9662 Y7         2 LUT     -0.405615
    156 C18        67.1791   64.3326   47.7852 Y9         2 LUT     -0.369639
    157 C19        69.6148   60.9467   44.4903 W1         2 LUT     -0.333362
    158 C20        73.6484   62.8131   40.7682 W2         2 LUT     -0.323439
    159 C21        87.3215   65.3670   34.4579 Z1         2 LUT      0.406104
    160 C22        87.8459   64.8401   33.0546 Z2         2 LUT     -0.404965
    161 C23        87.8174   65.9785   32.0655 Z3         2 LUT      0.391255
    162 O23        88.1975   65.3257   30.8506 S1         2 LUT     -0.528210
    163 C24        86.5117   66.7332   32.0419 W6         2 LUT     -0.258361
    164 C25        85.5596   66.6724   33.0183 Z5         2 LUT      0.133546
    165 C26        85.7698   65.7060   34.2301 W8         2 LUT     -0.147008
    166 C27        85.1442   66.2830   35.5177 Z7         2 LUT      0.023843
    167 C28        83.8323   66.2143   35.8558 Z8         2 LUT     -0.216987
    168 C29        83.2347   66.5328   37.1610 Z9         2 LUT      0.206524
    169 C30        81.9696   66.1260   37.5636 Y1         2 LUT     -0.215556
    170 C31        81.2782   66.4590   38.7867 Y2         2 LUT      0.025142
    171 C32        80.0821   65.7779   39.0807 Y3         2 LUT     -0.212209
    172 C33        79.3690   65.9328   40.2658 Y4         2 LUT      0.240937
    173 C34        78.1686   65.2901   40.3158 Y5         2 LUT     -0.218862
    174 C35        77.1622   65.3366   41.3257 Y6         2 LUT     -0.023547
    175 C36        88.2714   66.4300   35.0027 Y7         2 LUT     -0.393485
    176 C37        87.6520   64.1253   35.3901 Y7         2 LUT     -0.393485
    177 C38        84.2828   67.5102   32.9258 Y9         2 LUT     -0.387526
    178 C39        84.1063   67.5000   37.9772 W1         2 LUT     -0.322618
    179 C40        79.6730   67.1958   41.1154 W2         2 LUT     -0.358472
    180 H403       79.4592   68.1359   40.5761 R7         2 LUT      0.097720
    181 H402       79.1635   67.2331   42.0604 R7         2 LUT      0.097720
    182 H401       80.7376   67.2682   41.4044 R7         2 LUT      0.097720
    183 H393       85.1007   67.0626   38.1802 R4         2 LUT      0.082505
    184 H392       84.1618   68.4442   37.4856 R4         2 LUT      0.082505
    185 H391       83.6410   67.7892   38.8721 R4         2 LUT      0.082505
    186 H383       83.3288   66.9430   32.9084 R1         2 LUT      0.104030
    187 H382       84.0886   68.2808   33.6274 R1         2 LUT      0.104030
    188 H381       84.3073   68.0707   32.0111 R1         2 LUT      0.104030
    189 H373       87.1651   63.2511   34.9506 T4         2 LUT      0.089537
    190 H372       88.7161   63.8388   35.5835 T4         2 LUT      0.089537
    191 H371       87.1786   64.1737   36.3697 T4         2 LUT      0.089537
    192 H363       89.2799   66.0501   34.9874 T4         2 LUT      0.089537
    193 H362       88.3421   67.4346   34.4910 T4         2 LUT      0.089537
    194 H361       88.1166   66.7466   36.0369 T4         2 LUT      0.089537
    195 H222       88.8988   64.4987   33.1933 U2         2 LUT      0.127376
    196 H221       87.2458   64.0212   32.5621 U2         2 LUT      0.127376
    197 H203       73.0952   63.5274   40.1374 R7         2 LUT      0.087068
    198 H202       74.4268   62.3126   40.1813 R7         2 LUT      0.087068
    199 H201       72.9542   62.0001   40.9578 R7         2 LUT      0.087068
    200 H193       68.4781   60.9764   44.4868 R4         2 LUT      0.089716
    201 H192       69.8386   61.0188   43.4422 R4         2 LUT      0.089716
    202 H191       69.8999   59.9936   44.9098 R4         2 LUT      0.089716
    203 H183       66.7572   65.2226   48.2962 R1         2 LUT      0.094572
    204 H182       68.0028   64.5804   47.1919 R1         2 LUT      0.094572
    205 H181       66.4590   63.9829   47.0997 R1         2 LUT      0.094572
    206 H173       69.1275   61.0256   51.7952 T4         2 LUT      0.093752
    207 H172       70.3920   61.5785   50.7206 T4         2 LUT      0.093752
    208 H171       69.0665   62.6570   51.2705 T4         2 LUT      0.093752
    209 H163       69.2445   59.1404   50.1178 T4         2 LUT      0.093752
    210 H162       68.3564   59.3550   48.5925 T4         2 LUT      0.093752
    211 H161       70.0730   60.0171   48.6882 T4         2 LUT      0.093752
    212 HO3        66.8136   62.3007   52.4952 Q1         2 LUT      0.300121
    213 H8         70.3689   63.4484   46.9827 U7         2 LUT      0.080784
    214 H7         68.5366   61.0675   46.9534 U6         2 LUT      0.042190
    215 H42        65.7776   64.0941   49.8815 U5         2 LUT      0.145166
    216 H41        67.1479   64.1442   50.8137 U5         2 LUT      0.145166
    217 H35        77.2212   65.9651   42.1476 T3         2 LUT      0.077919
    218 H34        77.7858   64.7078   39.4622 T2         2 LUT      0.073626
    219 H32        79.6623   65.1053   38.3619 T1         2 LUT      0.092510
    220 H31        81.7189   67.1801   39.4746 U9         2 LUT      0.070048
    221 H30        81.3864   65.4570   36.9533 U8         2 LUT      0.085442
    222 H3         65.2718   62.0813   50.0545 U3         2 LUT     -0.031596
    223 H28        83.1565   65.6229   35.2274 U7         2 LUT      0.084728
    224 H27        85.8987   66.8212   36.1160 U6         2 LUT      0.087291
    225 H26        85.1093   64.8043   34.0471 Q6         2 LUT      0.075325
    226 H24        86.4116   67.4050   31.1711 Q5         2 LUT      0.094482
    227 H23        88.5984   66.7435   32.3491 U3         2 LUT     -0.024869
    228 H22        66.4917   60.4396   49.3515 U2         2 LUT      0.127376
    229 H21        67.0972   60.0488   50.9103 U2         2 LUT      0.127376
    230 H15        76.1904   63.8299   40.3749 T3         2 LUT      0.093200
    231 H14        75.1098   65.0561   42.9152 T2         2 LUT      0.068865
    232 H12        73.3044   64.2957   43.9290 T1         2 LUT      0.095507
    233 H11        71.6109   62.1428   42.7675 U9         2 LUT      0.068930
    234 H10        71.7366   63.7670   45.3387 U8         2 LUT      0.083911
    235 H1         88.2027   65.8803   30.0404 Q1         2 LUT      0.297311
@<TRIPOS>BOND
    1     6     1 1
    2     7     2 1
    3     8     3 1
    4     9     4 1
    5    11     4 1
    6    12     6 1
    7    13     9 1
    8    16     9 1
    9    25     5 1
   10    25    16 1
   11    26    10 1
   12    26    17 1
   13    27    18 1
   14    28    14 1
   15    28    19 1
   16    29    12 1
   17    30    13 1
   18    31    24 1
   19    32     1 1
   20    32    25 1
   21    33    21 1
   22    33    26 1
   23    34    22 1
   24    34    27 1
   25    35    23 1
   26    35    28 1
   27    36    12 1
   28    36    24 1
   29    37    13 1
   30    37    15 1
   31    38    31 1
   32    39    20 1
   33    39    32 1
   34    40     2 1
   35    40    33 1
   36    41     3 1
   37    41    34 1
   38    42     4 1
   39    42    35 1
   40    43    38 1
   41    44     5 1
   42    44    17 1
   43    44    39 1
   44    45    10 1
   45    45    18 1
   46    45    40 1
   47    46    19 1
   48    46    41 1
   49    47    14 1
   50    47    16 1
   51    47    42 1
   52    48    38 1
   53    49    48 1
   54    50    49 1
   55    51    50 1
   56    52    51 1
   57    53    51 1
   58    54    53 1
   59    55    54 1
   60    56    55 1
   61    57    56 1
   62    58    56 1
   63    59    58 1
   64    60    59 1
   65    61    60 1
   66    62    61 1
   67    63    61 1
   68    64    27 1
   69    64    46 1
   70    65     5 1
   71    65    10 1
   72    65    64 1
   73    65    14 1
   74    66    23 1
   75    67    23 1
   76    68    23 1
   77    69    22 1
   78    70    22 1
   79    71    22 1
   80    72    21 1
   81    73    21 1
   82    74    21 1
   83    75    20 1
   84    76    20 1
   85    77    20 1
   86    78    15 1
   87    79    15 1
   88    80    15 1
   89    81     8 1
   90    82     8 1
   91    83     8 1
   92    84     7 1
   93    85     7 1
   94    86     6 1
   95    87     6 1
   96    88     3 1
   97    89     3 1
   98    90     1 1
   99    91     1 1
  100    92    63 1
  101    93    63 1
  102    94    63 1
  103    95    62 1
  104    96    62 1
  105    97    62 1
  106    98    60 1
  107    99    60 1
  108   100    59 1
  109   101    59 1
  110   102    58 1
  111   103    58 1
  112   104    57 1
  113   105    57 1
  114   106    57 1
  115   107    55 1
  116   108    55 1
  117   109    54 1
  118   110    54 1
  119   111    53 1
  120   112    53 1
  121   113    19 1
  122   114    18 1
  123   115    17 1
  124   116     9 1
  125   117     2 1
  126   118    52 1
  127   119    52 1
  128   120    52 1
  129   121    51 1
  130   122    50 1
  131   123    50 1
  132   124    49 1
  133   125    49 1
  134   126    48 1
  135   127    48 1
  136   128    43 1
  137   129    43 1
  138   130    43 1
  139   131    39 1
  140   132    32 1
  141   133    31 1
  142   134    61 1
  143   135    56 1
  144   136    24 1
  145   137    24 1
  146   139   138 1
  147   140   139 1
  148   141   140 1
  149   142   140 1
  150   143   142 1
  151   144   138 1
  152   144   143 1
  153   145   144 1
  154   146   145 1
  155   147   146 1
  156   148   147 1
  157   149   148 1
  158   150   149 1
  159   151   150 1
  160   152   151 1
  161   153   152 1
  162   154   138 1
  163   155   138 1
  164   156   143 1
  165   157   147 1
  166   158   151 1
  167   160   159 1
  168   161   160 1
  169   162   161 1
  170   163   161 1
  171   164   163 1
  172   165   159 1
  173   165   164 1
  174   166   165 1
  175   167   166 1
  176   168   167 1
  177   169   168 1
  178   170   169 1
  179   171   170 1
  180   172   171 1
  181   173   172 1
  182   174   153 1
  183   174   173 1
  184   175   159 1
  185   176   159 1
  186   177   164 1
  187   178   168 1
  188   179   172 1
  189   180   179 1
  190   181   179 1
  191   182   179 1
  192   183   178 1
  193   184   178 1
  194   185   178 1
  195   186   177 1
  196   187   177 1
  197   188   177 1
  198   189   176 1
  199   190   176 1
  200   191   176 1
  201   192   175 1
  202   193   175 1
  203   194   175 1
  204   195   160 1
  205   196   160 1
  206   197   158 1
  207   198   158 1
  208   199   158 1
  209   200   157 1
  210   201   157 1
  211   202   157 1
  212   203   156 1
  213   204   156 1
  214   205   156 1
  215   206   155 1
  216   207   155 1
  217   208   155 1
  218   209   154 1
  219   210   154 1
  220   211   154 1
  221   212   141 1
  222   213   146 1
  223   214   145 1
  224   215   142 1
  225   216   142 1
  226   217   174 1
  227   218   173 1
  228   219   171 1
  229   220   170 1
  230   221   169 1
  231   222   140 1
  232   223   167 1
  233   224   166 1
  234   225   165 1
  235   226   163 1
  236   227   161 1
  237   228   139 1
  238   229   139 1
  239   230   153 1
  240   231   152 1
  241   232   150 1
  242   233   149 1
  243   234   148 1
  244   235   162 1
  245   65    153 1
  246   65    174 1
@<TRIPOS>SUBSTRUCTURE
      1 CLA               1 ****               0 ****  **** 
      2 LUT             138 ****               0 ****  **** 
