@<TRIPOS>MOLECULE
Cpptraj generated mol2 file.
  235   246     2     0     0
SMALL
USER_CHARGES


@<TRIPOS>ATOM
      1 CAA        78.8830   57.1045   35.0084 a2         1 CLA     -0.055900
      2 CAB        78.0518   61.3268   43.7600 c8         1 CLA     -0.148500
      3 CAC        71.4615   56.7243   43.0007 a2         1 CLA     -0.012600
      4 CAD        74.4332   54.5732   35.9579 ck         1 CLA      0.398800
      5 NA         77.2464   57.9098   38.1237 ns         1 CLA     -0.225500
      6 CBA        80.3236   56.8388   34.4333 a2         1 CLA     -0.135000
      7 CBB        79.0375   61.4551   44.6971 c0         1 CLA     -0.395200
      8 CBC        71.7350   55.2431   43.3034 a3         1 CLA     -0.037700
      9 CBD        75.8868   55.2147   35.7242 a1         1 CLA     -0.053900
     10 NB         77.0094   59.3432   40.8084 nm         1 CLA     -0.295700
     11 OBD        73.9271   53.6619   35.2545 o2         1 CLA     -0.494600
     12 CGA        80.7549   55.4361   34.0021 c4         1 CLA      0.827000
     13 CGD        76.8564   54.0917   35.8455 c4         1 CLA      0.655300
     14 ND         74.5197   56.9085   38.5741 nm         1 CLA     -0.291600
     15 CED        77.3669   52.2374   37.3327 a3         1 CLA      0.005400
     16 CHA        76.1310   56.2271   36.7511 cs         1 CLA     -0.123800
     17 CHB        78.9388   59.1743   39.3195 aa         1 CLA     -0.291900
     18 CHC        75.6370   59.5187   42.7756 aa         1 CLA     -0.090400
     19 CHD        72.7159   56.6232   40.0880 aa         1 CLA     -0.052000
     20 CMA        80.5607   56.8395   38.3052 a3         1 CLA     -0.230700
     21 CMB        80.2273   61.0150   41.6444 a3         1 CLA     -0.180800
     22 CMC        73.3126   58.8599   44.6882 a3         1 CLA     -0.134000
     23 CMD        71.7394   54.4743   37.9597 a3         1 CLA     -0.141100
     24 C1         81.4454   53.2980   34.8390 a2         1 CLA      0.023000
     25 C1A        77.2685   57.0053   37.0668 ac         1 CLA     -0.015100
     26 C1B        78.2987   59.7103   40.4793 cr         1 CLA      0.054700
     27 C1C        74.5080   58.7778   42.3386 cn         1 CLA     -0.005600
     28 C1D        73.3018   56.3944   38.8814 ap         1 CLA     -0.047300
     29 O1A        80.9572   55.1018   32.8407 o2         1 CLA     -0.610800
     30 O1D        77.8934   53.8978   35.2030 o2         1 CLA     -0.558200
     31 C2         81.2882   52.4422   36.0600 c8         1 CLA     -0.325100
     32 C2A        78.6570   56.8341   36.4861 a1         1 CLA      0.098600
     33 C2B        78.8685   60.5334   41.5189 cb         1 CLA      0.088500
     34 C2C        73.4051   58.4266   43.2357 cb         1 CLA      0.053700
     35 C2D        72.9276   55.3771   37.9005 cb         1 CLA      0.058900
     36 O2A        80.9850   54.6075   35.0930 o1         1 CLA     -0.437200
     37 O2D        76.4221   53.2529   36.8746 o1         1 CLA     -0.357600
     38 C3         82.1619   51.8084   36.8697 c5         1 CLA      0.031200
     39 C3A        79.5750   57.6227   37.4093 a1         1 CLA      0.166800
     40 C3B        77.9089   60.6097   42.5000 cb         1 CLA      0.035000
     41 C3C        72.5971   57.5152   42.5074 cb         1 CLA     -0.089900
     42 C3D        73.9698   55.3250   36.9988 cb         1 CLA     -0.035900
     43 C4         82.4629   50.2912   36.7519 a3         1 CLA     -0.053300
     44 C4A        78.5276   58.3101   38.3013 ac         1 CLA      0.001800
     45 C4B        76.7692   59.8188   42.0649 cn         1 CLA     -0.020900
     46 C4C        73.2028   57.4246   41.1454 cr         1 CLA     -0.044400
     47 C4D        74.9615   56.2078   37.4833 c6         1 CLA     -0.046000
     48 C5         82.6890   52.3234   38.1606 a2         1 CLA     -0.070400
     49 C6         83.7908   53.4235   38.0157 a2         1 CLA      0.043900
     50 C7         84.1208   54.2449   39.2961 a2         1 CLA     -0.150000
     51 C8         84.9321   55.5338   39.1600 a1         1 CLA      0.064200
     52 C9         86.2531   55.2421   38.3076 a3         1 CLA     -0.259300
     53 C10        85.2006   56.2355   40.5412 a2         1 CLA     -0.071900
     54 C11        83.9737   56.8733   41.2139 a2         1 CLA      0.014500
     55 C12        84.3024   57.9018   42.2832 a2         1 CLA     -0.112100
     56 C13        84.9833   57.2559   43.5655 a1         1 CLA      0.089200
     57 C14        84.1431   56.2357   44.4385 a3         1 CLA     -0.239100
     58 C15        85.5654   58.3724   44.4520 a2         1 CLA     -0.102200
     59 C16        84.5308   59.5001   44.7236 a2         1 CLA      0.023900
     60 C17        84.8226   60.2918   46.0012 a2         1 CLA     -0.105700
     61 C18        83.8607   61.4633   46.3525 a1         1 CLA      0.206800
     62 C19        82.4079   61.1795   46.3395 a3         1 CLA     -0.280100
     63 C20        84.3590   62.0828   47.6673 a3         1 CLA     -0.280100
     64 NC         74.3484   58.1529   41.0838 nx         1 CLA     -0.309200
     65 MG         75.7011   58.2539   39.6140 mg         1 CLA      0.895000
     66 HMD3       71.6333   53.9799   38.9062 dc         1 CLA      0.064300
     67 HMD2       70.7863   55.0542   37.8012 dc         1 CLA      0.064300
     68 HMD1       71.6526   53.6613   37.1792 dc         1 CLA      0.064300
     69 HMC3       73.1880   59.8831   44.7830 dc         1 CLA      0.052100
     70 HMC2       72.4010   58.4208   45.0795 dc         1 CLA      0.052100
     71 HMC1       74.2002   58.6238   45.2261 dc         1 CLA      0.052100
     72 HMB3       80.8759   60.4427   40.9377 dc         1 CLA      0.063600
     73 HMB2       80.1544   62.1117   41.3177 dc         1 CLA      0.063600
     74 HMB1       80.6154   60.8819   42.6263 dc         1 CLA      0.063600
     75 HMA3       79.9544   56.1278   38.9538 dc         1 CLA      0.058300
     76 HMA2       81.1295   56.2423   37.6500 dc         1 CLA      0.058300
     77 HMA1       81.2535   57.4086   38.8633 dc         1 CLA      0.058300
     78 HED3       76.8489   51.3650   37.7046 dc         1 CLA      0.079300
     79 HED2       77.9964   51.8299   36.5510 dc         1 CLA      0.079300
     80 HED1       77.9228   52.5673   38.2107 dc         1 CLA      0.079300
     81 HBC3       70.8491   54.8042   43.5701 dc         1 CLA      0.016300
     82 HBC2       72.1148   54.7197   42.4417 dc         1 CLA      0.016300
     83 HBC1       72.3982   55.3034   44.1746 dc         1 CLA      0.016300
     84 HBB2       78.8800   62.0740   45.6231 da         1 CLA      0.183000
     85 HBB1       80.0049   60.8761   44.6364 da         1 CLA      0.183000
     86 HBA2       80.5343   57.4959   33.6024 dc         1 CLA      0.029400
     87 HBA1       81.0574   57.1277   35.1297 dc         1 CLA      0.029400
     88 HAC2       71.0295   57.1047   43.8920 dc         1 CLA      0.029300
     89 HAC1       70.5580   56.7473   42.3423 dc         1 CLA      0.029300
     90 HAA2       78.0954   56.4817   34.5849 dc         1 CLA      0.028700
     91 HAA1       78.5105   58.1381   34.8574 dc         1 CLA      0.028700
     92 H203       83.6254   62.8695   47.9536 dc         1 CLA      0.065600
     93 H202       84.6454   61.3737   48.4608 dc         1 CLA      0.065600
     94 H201       85.3385   62.5331   47.5425 dc         1 CLA      0.065600
     95 H193       82.3598   60.4026   47.1132 dc         1 CLA      0.065600
     96 H192       81.8509   62.0404   46.5936 dc         1 CLA      0.065600
     97 H191       81.9141   60.8060   45.4399 dc         1 CLA      0.065600
     98 H172       84.9414   59.6263   46.8568 dc         1 CLA      0.027600
     99 H171       85.7882   60.8269   45.7468 dc         1 CLA      0.027600
    100 H162       84.4387   60.1770   43.8618 dc         1 CLA      0.002900
    101 H161       83.5489   59.0535   44.9583 dc         1 CLA      0.002900
    102 H152       85.8122   57.9217   45.3480 dc         1 CLA      0.029100
    103 H151       86.4250   58.7852   43.8670 dc         1 CLA      0.029100
    104 H143       83.1144   56.5787   44.6178 dc         1 CLA      0.063600
    105 H142       83.9413   55.3484   43.8312 dc         1 CLA      0.063600
    106 H141       84.6670   55.9791   45.3636 dc         1 CLA      0.063600
    107 H122       85.0021   58.7010   41.9711 dc         1 CLA      0.032500
    108 H121       83.3569   58.3779   42.6159 dc         1 CLA      0.032500
    109 H112       83.4200   57.4232   40.4842 dc         1 CLA      0.006600
    110 H111       83.3744   56.0541   41.6637 dc         1 CLA      0.006600
    111 H102       85.5661   55.5073   41.2362 dc         1 CLA      0.024100
    112 H101       86.0468   56.9760   40.4548 dc         1 CLA      0.024100
    113 HHD        71.7669   56.0973   40.3290 da         1 CLA      0.174300
    114 HHC        75.5410   60.0631   43.7440 da         1 CLA      0.136800
    115 HHB        80.0208   59.3210   39.2704 da         1 CLA      0.138300
    116 HBD        76.0367   55.5639   34.6903 dc         1 CLA      0.107700
    117 HAB        77.1834   61.9264   44.0586 da         1 CLA      0.155200
    118 H93        86.8454   54.3858   38.6229 dc         1 CLA      0.069500
    119 H92        86.0415   55.0164   37.2798 dc         1 CLA      0.069500
    120 H91        86.9258   56.0707   38.2866 dc         1 CLA      0.069500
    121 H8         84.4845   56.2661   38.4587 dc         1 CLA      0.029300
    122 H72        83.0986   54.4819   39.7119 dc         1 CLA      0.044400
    123 H71        84.6609   53.6927   40.0438 dc         1 CLA      0.044400
    124 H62        84.6450   53.0267   37.4558 dc         1 CLA      0.015600
    125 H61        83.2903   54.0798   37.3533 dc         1 CLA      0.015600
    126 H52        81.8644   52.8061   38.7577 dc         1 CLA      0.033200
    127 H51        82.9927   51.4297   38.7482 dc         1 CLA      0.033200
    128 H43        81.9555   49.7916   37.6061 dc         1 CLA      0.037000
    129 H42        82.0146   50.0566   35.8186 dc         1 CLA      0.037000
    130 H41        83.5397   49.9812   36.8060 dc         1 CLA      0.037000
    131 H3A        80.1196   58.3656   36.8830 dc         1 CLA      0.041100
    132 H2A        78.9120   55.7500   36.5834 dc         1 CLA      0.083100
    133 H2         80.3083   52.3203   36.4136 da         1 CLA      0.180900
    134 H18        83.9800   62.2620   45.5983 dc         1 CLA     -0.003900
    135 H13        85.8991   56.7640   43.2974 dc         1 CLA      0.019700
    136 H12        80.7920   52.8423   34.0892 dc         1 CLA      0.120400
    137 H11        82.5269   53.4229   34.4675 dc         1 CLA      0.120400
    138 C1         68.5434   61.0280   50.6453 Z1         2 LUT      0.509236
    139 C2         67.1726   60.7911   51.2995 Z2         2 LUT     -0.434695
    140 C3         66.2968   61.9360   51.6844 Z3         2 LUT      0.437453
    141 O3         66.2312   62.1848   53.0809 S1         2 LUT     -0.547129
    142 C4         66.6192   63.2026   50.7601 Z4         2 LUT     -0.468603
    143 C5         67.3987   62.8905   49.4660 Z5         2 LUT      0.279246
    144 C6         68.3309   61.8881   49.4132 Z6         2 LUT     -0.305473
    145 C7         68.6715   61.2352   48.0573 Z7         2 LUT      0.069402
    146 C8         69.5030   61.7209   47.1016 Z8         2 LUT     -0.191631
    147 C9         70.0244   61.1501   45.8560 Z9         2 LUT      0.196698
    148 C10        70.9784   61.9712   45.2604 Y1         2 LUT     -0.208611
    149 C11        71.7079   61.8864   44.0092 Y2         2 LUT      0.030784
    150 C12        72.6439   62.8188   43.6908 Y3         2 LUT     -0.220316
    151 C13        73.6112   62.7585   42.5893 Y4         2 LUT      0.215937
    152 C14        74.7928   63.5051   42.7198 Y5         2 LUT     -0.185793
    153 C15        75.9063   63.6817   41.7198 Y6         2 LUT     -0.057835
    154 C16        69.1557   59.6153   50.3496 Y7         2 LUT     -0.405615
    155 C17        69.4825   61.6506   51.6277 Y7         2 LUT     -0.405615
    156 C18        66.8651   63.6060   48.2611 Y9         2 LUT     -0.369639
    157 C19        69.3720   59.8774   45.3024 W1         2 LUT     -0.333362
    158 C20        73.1224   62.0922   41.3027 W2         2 LUT     -0.323439
    159 C21        86.9264   64.3973   35.6486 Z1         2 LUT      0.406104
    160 C22        87.5848   63.8789   34.3498 Z2         2 LUT     -0.404965
    161 C23        88.0735   64.9201   33.2730 Z3         2 LUT      0.391255
    162 O23        88.3839   64.1299   32.1276 S1         2 LUT     -0.528210
    163 C24        86.9258   65.8864   33.0537 W6         2 LUT     -0.258361
    164 C25        85.8307   65.9952   33.8705 Z5         2 LUT      0.133546
    165 C26        85.5999   65.1742   35.1247 W8         2 LUT     -0.147008
    166 C27        84.8730   65.9984   36.2379 Z7         2 LUT      0.023843
    167 C28        83.8687   65.4873   37.0146 Z8         2 LUT     -0.216987
    168 C29        83.1494   66.1056   38.1388 Z9         2 LUT      0.206524
    169 C30        82.1908   65.4049   38.8590 Y1         2 LUT     -0.215556
    170 C31        81.3934   65.6937   39.9936 Y2         2 LUT      0.025142
    171 C32        80.2272   65.0269   40.2576 Y3         2 LUT     -0.212209
    172 C33        79.3643   65.0595   41.4100 Y4         2 LUT      0.240937
    173 C34        78.1859   64.3800   41.1658 Y5         2 LUT     -0.218862
    174 C35        77.0280   64.4320   42.0023 Y6         2 LUT     -0.023547
    175 C36        87.9351   65.2646   36.4643 Y7         2 LUT     -0.393485
    176 C37        86.6133   63.2254   36.5266 Y7         2 LUT     -0.393485
    177 C38        84.7344   66.8331   33.3375 Y9         2 LUT     -0.387526
    178 C39        83.4730   67.6023   38.3642 W1         2 LUT     -0.322618
    179 C40        79.7999   65.8268   42.6249 W2         2 LUT     -0.358472
    180 H403       79.9862   66.8610   42.5062 R7         2 LUT      0.097720
    181 H402       79.2514   65.6592   43.4697 R7         2 LUT      0.097720
    182 H401       80.7764   65.5120   42.9589 R7         2 LUT      0.097720
    183 H393       83.2427   67.8919   39.3805 R4         2 LUT      0.082505
    184 H392       84.5344   67.8286   38.4321 R4         2 LUT      0.082505
    185 H391       82.9595   68.1774   37.6187 R4         2 LUT      0.082505
    186 H383       83.9431   66.2600   32.7897 R1         2 LUT      0.104030
    187 H382       84.1037   67.2857   34.1523 R1         2 LUT      0.104030
    188 H381       85.1127   67.7493   32.8147 R1         2 LUT      0.104030
    189 H373       86.3203   63.5260   37.6135 T4         2 LUT      0.089537
    190 H372       85.7194   62.7185   36.1713 T4         2 LUT      0.089537
    191 H371       87.4293   62.5112   36.6395 T4         2 LUT      0.089537
    192 H363       88.5331   64.5818   37.0485 T4         2 LUT      0.089537
    193 H362       88.6377   65.8213   35.7792 T4         2 LUT      0.089537
    194 H361       87.4511   65.9018   37.1474 T4         2 LUT      0.089537
    195 H222       88.4223   63.1794   34.6443 U2         2 LUT      0.127376
    196 H221       86.9026   63.2244   33.8051 U2         2 LUT      0.127376
    197 H203       72.2995   62.6005   40.7724 R7         2 LUT      0.087068
    198 H202       73.8725   62.0993   40.5117 R7         2 LUT      0.087068
    199 H201       72.7879   61.0994   41.4261 R7         2 LUT      0.087068
    200 H193       68.3486   59.8951   45.3691 R4         2 LUT      0.089716
    201 H192       69.6271   59.7224   44.2503 R4         2 LUT      0.089716
    202 H191       69.6787   58.9995   45.8969 R4         2 LUT      0.089716
    203 H183       66.1313   62.9148   47.7795 R1         2 LUT      0.094572
    204 H182       66.2730   64.4838   48.6739 R1         2 LUT      0.094572
    205 H181       67.7061   63.9278   47.6055 R1         2 LUT      0.094572
    206 H173       69.2420   62.7221   51.8089 T4         2 LUT      0.093752
    207 H172       69.3307   61.1302   52.5357 T4         2 LUT      0.093752
    208 H171       70.5745   61.5558   51.3815 T4         2 LUT      0.093752
    209 H163       68.3498   59.0572   49.8097 T4         2 LUT      0.093752
    210 H162       70.0128   59.5697   49.6438 T4         2 LUT      0.093752
    211 H161       69.4271   59.0659   51.2135 T4         2 LUT      0.093752
    212 HO3        67.0041   62.6791   53.4861 Q1         2 LUT      0.300121
    213 H8         69.8178   62.7281   47.2096 U7         2 LUT      0.080784
    214 H7         68.3753   60.2198   47.8655 U6         2 LUT      0.042190
    215 H42        65.6940   63.6466   50.4161 U5         2 LUT      0.145166
    216 H41        66.9593   64.0764   51.3246 U5         2 LUT      0.145166
    217 H35        77.0742   64.8404   43.0261 T3         2 LUT      0.077919
    218 H34        78.0059   63.9181   40.2082 T2         2 LUT      0.073626
    219 H32        79.8563   64.4274   39.3971 T1         2 LUT      0.092510
    220 H31        81.8528   66.3674   40.7184 U9         2 LUT      0.070048
    221 H30        82.0301   64.3686   38.5135 U8         2 LUT      0.085442
    222 H3         65.2426   61.6604   51.5763 U3         2 LUT     -0.031596
    223 H28        83.6164   64.4383   36.7984 U7         2 LUT      0.084728
    224 H27        85.2647   67.0276   36.4575 U6         2 LUT      0.087291
    225 H26        84.7997   64.4963   34.7868 Q6         2 LUT      0.075325
    226 H24        86.9035   66.6021   32.2655 Q5         2 LUT      0.094482
    227 H23        89.0197   65.3396   33.6807 U3         2 LUT     -0.024869
    228 H22        66.5739   60.2043   50.5857 U2         2 LUT      0.127376
    229 H21        67.2310   60.1638   52.2108 U2         2 LUT      0.127376
    230 H15        75.9067   62.9854   40.8779 T3         2 LUT      0.093200
    231 H14        74.9377   64.0108   43.7170 T2         2 LUT      0.068865
    232 H12        72.8515   63.5649   44.4120 T1         2 LUT      0.095507
    233 H11        71.5138   60.9245   43.4764 U9         2 LUT      0.068930
    234 H10        71.2989   62.8214   45.8397 U8         2 LUT      0.083911
    235 H1         89.1542   64.4133   31.6474 Q1         2 LUT      0.297311
@<TRIPOS>BOND
    1     6     1 1
    2     7     2 1
    3     8     3 1
    4     9     4 1
    5    11     4 1
    6    12     6 1
    7    13     9 1
    8    16     9 1
    9    25     5 1
   10    25    16 1
   11    26    10 1
   12    26    17 1
   13    27    18 1
   14    28    14 1
   15    28    19 1
   16    29    12 1
   17    30    13 1
   18    31    24 1
   19    32     1 1
   20    32    25 1
   21    33    21 1
   22    33    26 1
   23    34    22 1
   24    34    27 1
   25    35    23 1
   26    35    28 1
   27    36    12 1
   28    36    24 1
   29    37    13 1
   30    37    15 1
   31    38    31 1
   32    39    20 1
   33    39    32 1
   34    40     2 1
   35    40    33 1
   36    41     3 1
   37    41    34 1
   38    42     4 1
   39    42    35 1
   40    43    38 1
   41    44     5 1
   42    44    17 1
   43    44    39 1
   44    45    10 1
   45    45    18 1
   46    45    40 1
   47    46    19 1
   48    46    41 1
   49    47    14 1
   50    47    16 1
   51    47    42 1
   52    48    38 1
   53    49    48 1
   54    50    49 1
   55    51    50 1
   56    52    51 1
   57    53    51 1
   58    54    53 1
   59    55    54 1
   60    56    55 1
   61    57    56 1
   62    58    56 1
   63    59    58 1
   64    60    59 1
   65    61    60 1
   66    62    61 1
   67    63    61 1
   68    64    27 1
   69    64    46 1
   70    65     5 1
   71    65    10 1
   72    65    64 1
   73    65    14 1
   74    66    23 1
   75    67    23 1
   76    68    23 1
   77    69    22 1
   78    70    22 1
   79    71    22 1
   80    72    21 1
   81    73    21 1
   82    74    21 1
   83    75    20 1
   84    76    20 1
   85    77    20 1
   86    78    15 1
   87    79    15 1
   88    80    15 1
   89    81     8 1
   90    82     8 1
   91    83     8 1
   92    84     7 1
   93    85     7 1
   94    86     6 1
   95    87     6 1
   96    88     3 1
   97    89     3 1
   98    90     1 1
   99    91     1 1
  100    92    63 1
  101    93    63 1
  102    94    63 1
  103    95    62 1
  104    96    62 1
  105    97    62 1
  106    98    60 1
  107    99    60 1
  108   100    59 1
  109   101    59 1
  110   102    58 1
  111   103    58 1
  112   104    57 1
  113   105    57 1
  114   106    57 1
  115   107    55 1
  116   108    55 1
  117   109    54 1
  118   110    54 1
  119   111    53 1
  120   112    53 1
  121   113    19 1
  122   114    18 1
  123   115    17 1
  124   116     9 1
  125   117     2 1
  126   118    52 1
  127   119    52 1
  128   120    52 1
  129   121    51 1
  130   122    50 1
  131   123    50 1
  132   124    49 1
  133   125    49 1
  134   126    48 1
  135   127    48 1
  136   128    43 1
  137   129    43 1
  138   130    43 1
  139   131    39 1
  140   132    32 1
  141   133    31 1
  142   134    61 1
  143   135    56 1
  144   136    24 1
  145   137    24 1
  146   139   138 1
  147   140   139 1
  148   141   140 1
  149   142   140 1
  150   143   142 1
  151   144   138 1
  152   144   143 1
  153   145   144 1
  154   146   145 1
  155   147   146 1
  156   148   147 1
  157   149   148 1
  158   150   149 1
  159   151   150 1
  160   152   151 1
  161   153   152 1
  162   154   138 1
  163   155   138 1
  164   156   143 1
  165   157   147 1
  166   158   151 1
  167   160   159 1
  168   161   160 1
  169   162   161 1
  170   163   161 1
  171   164   163 1
  172   165   159 1
  173   165   164 1
  174   166   165 1
  175   167   166 1
  176   168   167 1
  177   169   168 1
  178   170   169 1
  179   171   170 1
  180   172   171 1
  181   173   172 1
  182   174   153 1
  183   174   173 1
  184   175   159 1
  185   176   159 1
  186   177   164 1
  187   178   168 1
  188   179   172 1
  189   180   179 1
  190   181   179 1
  191   182   179 1
  192   183   178 1
  193   184   178 1
  194   185   178 1
  195   186   177 1
  196   187   177 1
  197   188   177 1
  198   189   176 1
  199   190   176 1
  200   191   176 1
  201   192   175 1
  202   193   175 1
  203   194   175 1
  204   195   160 1
  205   196   160 1
  206   197   158 1
  207   198   158 1
  208   199   158 1
  209   200   157 1
  210   201   157 1
  211   202   157 1
  212   203   156 1
  213   204   156 1
  214   205   156 1
  215   206   155 1
  216   207   155 1
  217   208   155 1
  218   209   154 1
  219   210   154 1
  220   211   154 1
  221   212   141 1
  222   213   146 1
  223   214   145 1
  224   215   142 1
  225   216   142 1
  226   217   174 1
  227   218   173 1
  228   219   171 1
  229   220   170 1
  230   221   169 1
  231   222   140 1
  232   223   167 1
  233   224   166 1
  234   225   165 1
  235   226   163 1
  236   227   161 1
  237   228   139 1
  238   229   139 1
  239   230   153 1
  240   231   152 1
  241   232   150 1
  242   233   149 1
  243   234   148 1
  244   235   162 1
  245   65    153 1
  246   65    174 1
@<TRIPOS>SUBSTRUCTURE
      1 CLA               1 ****               0 ****  **** 
      2 LUT             138 ****               0 ****  **** 
