@<TRIPOS>MOLECULE
Cpptraj generated mol2 file.
  235   246     2     0     0
SMALL
USER_CHARGES


@<TRIPOS>ATOM
      1 CAA        78.1058   57.8716   32.9419 a2         1 CLA     -0.055900
      2 CAB        77.6714   61.2771   42.2203 c8         1 CLA     -0.148500
      3 CAC        70.8100   57.0799   41.4599 a2         1 CLA     -0.012600
      4 CAD        73.9792   54.9493   34.0637 ck         1 CLA      0.398800
      5 NA         76.7571   58.1484   36.3288 ns         1 CLA     -0.225500
      6 CBA        79.3778   57.7051   32.1211 a2         1 CLA     -0.135000
      7 CBB        78.7710   61.0560   43.0151 c0         1 CLA     -0.395200
      8 CBC        70.7280   55.6419   41.1424 a3         1 CLA     -0.037700
      9 CBD        75.3554   55.5709   33.7825 a1         1 CLA     -0.053900
     10 NB         76.5652   59.6671   38.9238 nm         1 CLA     -0.295700
     11 OBD        73.5252   54.1070   33.3295 o2         1 CLA     -0.494600
     12 CGA        79.7993   56.2424   31.8361 c4         1 CLA      0.827000
     13 CGD        76.3511   54.4574   33.6493 c4         1 CLA      0.655300
     14 ND         74.0807   57.1351   36.9190 nm         1 CLA     -0.291600
     15 CED        77.4809   52.7034   34.7735 a3         1 CLA      0.005400
     16 CHA        75.6047   56.5734   34.9125 cs         1 CLA     -0.123800
     17 CHB        78.5187   59.5529   37.4342 aa         1 CLA     -0.291900
     18 CHC        75.1889   59.6901   41.0107 aa         1 CLA     -0.090400
     19 CHD        72.1252   56.9818   38.3838 aa         1 CLA     -0.052000
     20 CMA        80.2144   57.3922   35.9837 a3         1 CLA     -0.230700
     21 CMB        79.7994   61.3084   39.7941 a3         1 CLA     -0.180800
     22 CMC        72.7200   58.9991   42.9662 a3         1 CLA     -0.134000
     23 CMD        71.1847   54.8703   36.2007 a3         1 CLA     -0.141100
     24 C1         80.8602   54.2994   32.8662 a2         1 CLA      0.023000
     25 C1A        76.7157   57.3347   35.2535 ac         1 CLA     -0.015100
     26 C1B        77.8695   59.9434   38.6277 cr         1 CLA      0.054700
     27 C1C        74.0136   58.9509   40.6759 cn         1 CLA     -0.005600
     28 C1D        72.8322   56.6165   37.2217 ap         1 CLA     -0.047300
     29 O1A        79.5914   55.6376   30.7880 o2         1 CLA     -0.610800
     30 O1D        77.0494   54.1035   32.6660 o2         1 CLA     -0.558200
     31 C2         81.2593   53.8457   34.2728 c8         1 CLA     -0.325100
     32 C2A        78.1246   57.3927   34.4633 a1         1 CLA      0.098600
     33 C2B        78.3813   60.7859   39.7149 cb         1 CLA      0.088500
     34 C2C        72.9316   58.5607   41.5456 cb         1 CLA      0.053700
     35 C2D        72.4445   55.6194   36.2019 cb         1 CLA      0.058900
     36 O2A        80.3636   55.7102   32.9264 o1         1 CLA     -0.437200
     37 O2D        76.4827   53.7251   34.7941 o1         1 CLA     -0.357600
     38 C3         81.9728   52.7746   34.7175 c5         1 CLA      0.031200
     39 C3A        79.0053   58.2015   35.3913 a1         1 CLA      0.166800
     40 C3B        77.5125   60.8148   40.7799 cb         1 CLA      0.035000
     41 C3C        72.0083   57.7707   40.8586 cb         1 CLA     -0.089900
     42 C3D        73.4785   55.5751   35.3086 cb         1 CLA     -0.035900
     43 C4         81.3317   51.4574   35.0397 a3         1 CLA     -0.053300
     44 C4A        78.0129   58.7208   36.4604 ac         1 CLA      0.001800
     45 C4B        76.3823   60.0489   40.2506 cn         1 CLA     -0.020900
     46 C4C        72.6070   57.6831   39.5018 cr         1 CLA     -0.044400
     47 C4D        74.4669   56.4295   35.7243 c6         1 CLA     -0.046000
     48 C5         83.4158   52.7775   34.4773 a2         1 CLA     -0.070400
     49 C6         84.3135   53.8287   35.1410 a2         1 CLA      0.043900
     50 C7         84.0538   53.9414   36.5897 a2         1 CLA     -0.150000
     51 C8         84.8212   55.0668   37.3400 a1         1 CLA      0.064200
     52 C9         86.3218   55.1333   36.8900 a3         1 CLA     -0.259300
     53 C10        84.7140   54.9790   38.9117 a2         1 CLA     -0.071900
     54 C11        83.3434   54.8640   39.6429 a2         1 CLA      0.014500
     55 C12        82.3599   56.0044   39.4031 a2         1 CLA     -0.112100
     56 C13        81.1582   56.0848   40.3359 a1         1 CLA      0.089200
     57 C14        79.9979   57.0263   39.8292 a3         1 CLA     -0.239100
     58 C15        81.5183   56.4007   41.8326 a2         1 CLA     -0.102200
     59 C16        82.4501   57.6156   42.1215 a2         1 CLA      0.023900
     60 C17        82.1271   58.1320   43.4917 a2         1 CLA     -0.105700
     61 C18        82.9932   59.3678   44.0918 a1         1 CLA      0.206800
     62 C19        82.1435   60.2341   45.0270 a3         1 CLA     -0.280100
     63 C20        84.2598   58.8013   44.7441 a3         1 CLA     -0.280100
     64 NC         73.8345   58.3429   39.4482 nx         1 CLA     -0.309200
     65 MG         75.2842   58.4713   37.8141 mg         1 CLA      0.895000
     66 HMD3       71.1822   53.9686   35.5609 dc         1 CLA      0.064300
     67 HMD2       70.8585   54.5779   37.1927 dc         1 CLA      0.064300
     68 HMD1       70.3948   55.5464   35.8739 dc         1 CLA      0.064300
     69 HMC3       71.6661   59.0368   43.2225 dc         1 CLA      0.052100
     70 HMC2       73.2716   58.3385   43.6382 dc         1 CLA      0.052100
     71 HMC1       73.1572   59.9044   43.1949 dc         1 CLA      0.052100
     72 HMB3       80.1104   61.4777   38.7948 dc         1 CLA      0.063600
     73 HMB2       79.5414   62.3134   40.2547 dc         1 CLA      0.063600
     74 HMB1       80.3567   60.6802   40.4626 dc         1 CLA      0.063600
     75 HMA3       80.7314   57.9408   36.7402 dc         1 CLA      0.058300
     76 HMA2       79.8238   56.4373   36.4365 dc         1 CLA      0.058300
     77 HMA1       81.0378   57.1984   35.2148 dc         1 CLA      0.058300
     78 HED3       77.4573   52.0960   35.6728 dc         1 CLA      0.079300
     79 HED2       77.3074   52.0289   33.9243 dc         1 CLA      0.079300
     80 HED1       78.4412   53.1518   34.6950 dc         1 CLA      0.079300
     81 HBC3       70.5270   55.4250   40.1282 dc         1 CLA      0.016300
     82 HBC2       71.5696   55.1255   41.5025 dc         1 CLA      0.016300
     83 HBC1       69.8408   55.2610   41.6347 dc         1 CLA      0.016300
     84 HBB2       78.9193   61.4472   44.0211 da         1 CLA      0.183000
     85 HBB1       79.6541   60.5526   42.6479 da         1 CLA      0.183000
     86 HBA2       79.4293   58.1210   31.0934 dc         1 CLA      0.029400
     87 HBA1       80.1160   58.2321   32.7252 dc         1 CLA      0.029400
     88 HAC2       70.9156   57.1889   42.5467 dc         1 CLA      0.029300
     89 HAC1       69.9124   57.5374   41.1302 dc         1 CLA      0.029300
     90 HAA2       77.3549   57.3090   32.3191 dc         1 CLA      0.028700
     91 HAA1       77.9161   58.9320   32.9986 dc         1 CLA      0.028700
     92 H203       83.9312   57.9648   45.4238 dc         1 CLA      0.065600
     93 H202       84.8905   58.4729   43.9345 dc         1 CLA      0.065600
     94 H201       84.7362   59.6361   45.2608 dc         1 CLA      0.065600
     95 H193       81.4227   60.6722   44.3736 dc         1 CLA      0.065600
     96 H192       81.6920   59.6347   45.8001 dc         1 CLA      0.065600
     97 H191       82.7755   60.9096   45.5317 dc         1 CLA      0.065600
     98 H172       81.0905   58.4741   43.4112 dc         1 CLA      0.027600
     99 H171       82.0827   57.3698   44.2273 dc         1 CLA      0.027600
    100 H162       83.4515   57.4235   41.9885 dc         1 CLA      0.002900
    101 H161       82.2090   58.3697   41.4129 dc         1 CLA      0.002900
    102 H152       80.5244   56.3269   42.2441 dc         1 CLA      0.029100
    103 H151       82.1403   55.5715   42.1836 dc         1 CLA      0.029100
    104 H143       80.2944   58.0312   39.9348 dc         1 CLA      0.063600
    105 H142       79.7308   56.8041   38.8053 dc         1 CLA      0.063600
    106 H141       79.0678   56.7944   40.4344 dc         1 CLA      0.063600
    107 H122       82.9896   56.9197   39.4025 dc         1 CLA      0.032500
    108 H121       82.0678   55.8975   38.3976 dc         1 CLA      0.032500
    109 H112       82.7429   53.9852   39.4518 dc         1 CLA      0.006600
    110 H111       83.6264   54.8636   40.6964 dc         1 CLA      0.006600
    111 H102       85.3454   54.1919   39.2484 dc         1 CLA      0.024100
    112 H101       85.0828   56.0200   39.1473 dc         1 CLA      0.024100
    113 HHD        71.0904   56.5679   38.5241 da         1 CLA      0.174300
    114 HHC        75.0595   60.2783   41.9589 da         1 CLA      0.136800
    115 HHB        79.5993   59.8371   37.3500 da         1 CLA      0.138300
    116 HBD        75.2331   56.0578   32.7756 dc         1 CLA      0.107700
    117 HAB        76.8906   61.9261   42.5833 da         1 CLA      0.155200
    118 H93        86.7632   54.1695   36.8628 dc         1 CLA      0.069500
    119 H92        86.3694   55.7378   36.0105 dc         1 CLA      0.069500
    120 H91        86.8963   55.6993   37.6328 dc         1 CLA      0.069500
    121 H8         84.2470   56.0028   36.9683 dc         1 CLA      0.029300
    122 H72        83.0499   54.1497   36.7820 dc         1 CLA      0.044400
    123 H71        84.2645   52.9622   37.0069 dc         1 CLA      0.044400
    124 H62        85.3402   53.5650   35.0790 dc         1 CLA      0.015600
    125 H61        84.0352   54.8282   34.7168 dc         1 CLA      0.015600
    126 H52        83.8278   51.8213   34.6628 dc         1 CLA      0.033200
    127 H51        83.5837   53.1118   33.4146 dc         1 CLA      0.033200
    128 H43        81.6005   51.2556   36.0603 dc         1 CLA      0.037000
    129 H42        80.2494   51.6244   34.9917 dc         1 CLA      0.037000
    130 H41        81.7094   50.6843   34.3794 dc         1 CLA      0.037000
    131 H3A        79.4453   59.1181   34.9042 dc         1 CLA      0.041100
    132 H2A        78.3925   56.3333   34.4778 dc         1 CLA      0.083100
    133 H2         81.0679   54.6456   35.0273 da         1 CLA      0.180900
    134 H18        83.1603   59.9096   43.1848 dc         1 CLA     -0.003900
    135 H13        80.7706   55.0491   40.3708 dc         1 CLA      0.019700
    136 H12        80.1628   53.6308   32.4440 dc         1 CLA      0.120400
    137 H11        81.7782   54.1780   32.2366 dc         1 CLA      0.120400
    138 C1         68.0988   60.5502   48.9114 Z1         2 LUT      0.509236
    139 C2         66.7271   60.3143   49.5413 Z2         2 LUT     -0.434695
    140 C3         65.9049   61.5342   49.9294 Z3         2 LUT      0.437453
    141 O3         66.0368   61.8775   51.2980 S1         2 LUT     -0.547129
    142 C4         66.1718   62.7570   48.9833 Z4         2 LUT     -0.468603
    143 C5         66.8796   62.4324   47.7317 Z5         2 LUT      0.279246
    144 C6         67.8070   61.4130   47.6929 Z6         2 LUT     -0.305473
    145 C7         68.1603   60.7808   46.3353 Z7         2 LUT      0.069402
    146 C8         69.3042   60.9637   45.6117 Z8         2 LUT     -0.191631
    147 C9         69.5678   60.7486   44.1188 Z9         2 LUT      0.196698
    148 C10        70.4841   61.5679   43.5662 Y1         2 LUT     -0.208611
    149 C11        70.9155   61.6098   42.1947 Y2         2 LUT      0.030784
    150 C12        71.9039   62.3947   41.6861 Y3         2 LUT     -0.220316
    151 C13        72.6421   62.3877   40.4563 Y4         2 LUT      0.215937
    152 C14        73.7787   63.2304   40.3621 Y5         2 LUT     -0.185793
    153 C15        74.8443   63.1546   39.2885 Y6         2 LUT     -0.057835
    154 C16        68.6114   59.1032   48.7574 Y7         2 LUT     -0.405615
    155 C17        69.0183   61.2636   49.8610 Y7         2 LUT     -0.405615
    156 C18        66.3702   63.1707   46.5426 Y9         2 LUT     -0.369639
    157 C19        68.8401   59.6896   43.3164 W1         2 LUT     -0.333362
    158 C20        71.9769   61.8424   39.2825 W2         2 LUT     -0.323439
    159 C21        86.5024   64.8387   33.6806 Z1         2 LUT      0.406104
    160 C22        87.3650   64.3704   32.4950 Z2         2 LUT     -0.404965
    161 C23        87.6042   65.3968   31.4116 Z3         2 LUT      0.391255
    162 O23        88.5282   64.8226   30.4998 S1         2 LUT     -0.528210
    163 C24        86.2924   66.0357   31.0168 W6         2 LUT     -0.258361
    164 C25        85.1897   66.0527   31.8209 Z5         2 LUT      0.133546
    165 C26        85.1037   65.3301   33.1480 W8         2 LUT     -0.147008
    166 C27        84.1309   65.8483   34.2066 Z7         2 LUT      0.023843
    167 C28        83.4223   65.0040   34.9812 Z8         2 LUT     -0.216987
    168 C29        82.6742   65.3223   36.1986 Z9         2 LUT      0.206524
    169 C30        81.5312   64.5247   36.4158 Y1         2 LUT     -0.215556
    170 C31        80.6529   64.6211   37.5612 Y2         2 LUT      0.025142
    171 C32        79.4350   64.1092   37.6660 Y3         2 LUT     -0.212209
    172 C33        78.5029   64.2775   38.7191 Y4         2 LUT      0.240937
    173 C34        77.2416   63.6860   38.5900 Y5         2 LUT     -0.218862
    174 C35        76.0902   63.8310   39.4824 Y6         2 LUT     -0.023547
    175 C36        87.2004   66.0200   34.3658 Y7         2 LUT     -0.393485
    176 C37        86.4416   63.7066   34.7720 Y7         2 LUT     -0.393485
    177 C38        83.8994   66.8397   31.3954 Y9         2 LUT     -0.387526
    178 C39        83.1587   66.4909   37.0739 W1         2 LUT     -0.322618
    179 C40        78.8464   65.1066   39.9908 W2         2 LUT     -0.358472
    180 H403       78.2551   64.7188   40.8745 R7         2 LUT      0.097720
    181 H402       79.9233   65.1486   40.1253 R7         2 LUT      0.097720
    182 H401       78.6241   66.1557   39.8747 R7         2 LUT      0.097720
    183 H393       82.8660   66.5375   38.1064 R4         2 LUT      0.082505
    184 H392       84.2518   66.6080   37.1305 R4         2 LUT      0.082505
    185 H391       82.7770   67.4745   36.7791 R4         2 LUT      0.082505
    186 H383       83.0784   66.1394   31.1895 R1         2 LUT      0.104030
    187 H382       83.4623   67.5125   32.0918 R1         2 LUT      0.104030
    188 H381       84.1347   67.4306   30.4939 R1         2 LUT      0.104030
    189 H373       85.9256   62.8221   34.3708 T4         2 LUT      0.089537
    190 H372       87.4684   63.4699   35.1599 T4         2 LUT      0.089537
    191 H371       85.8053   64.0129   35.5683 T4         2 LUT      0.089537
    192 H363       88.0380   65.5909   34.9435 T4         2 LUT      0.089537
    193 H362       87.4396   66.7401   33.6448 T4         2 LUT      0.089537
    194 H361       86.4397   66.3828   35.0460 T4         2 LUT      0.089537
    195 H222       88.3206   64.0501   32.9510 U2         2 LUT      0.127376
    196 H221       86.9334   63.5011   32.0294 U2         2 LUT      0.127376
    197 H203       70.8638   62.1257   39.2969 R7         2 LUT      0.087068
    198 H202       72.3889   62.2305   38.4073 R7         2 LUT      0.087068
    199 H201       72.1423   60.8159   39.1194 R7         2 LUT      0.087068
    200 H193       69.4209   58.7632   43.3253 R4         2 LUT      0.089716
    201 H192       67.9462   59.3282   43.8429 R4         2 LUT      0.089716
    202 H191       68.5515   59.9626   42.3390 R4         2 LUT      0.089716
    203 H183       66.2731   62.4830   45.6718 R1         2 LUT      0.094572
    204 H182       65.3854   63.6898   46.7806 R1         2 LUT      0.094572
    205 H181       66.8559   64.0199   46.1839 R1         2 LUT      0.094572
    206 H173       68.5369   61.3330   50.8577 T4         2 LUT      0.093752
    207 H172       70.0519   60.8623   49.8127 T4         2 LUT      0.093752
    208 H171       69.3199   62.2865   49.5754 T4         2 LUT      0.093752
    209 H163       69.6452   59.0775   48.4019 T4         2 LUT      0.093752
    210 H162       68.7537   58.5930   49.7148 T4         2 LUT      0.093752
    211 H161       68.0101   58.4836   48.1480 T4         2 LUT      0.093752
    212 HO3        65.7359   61.2582   52.0141 Q1         2 LUT      0.300121
    213 H8         70.1288   61.4732   46.0620 U7         2 LUT      0.080784
    214 H7         67.3720   60.3952   45.7228 U6         2 LUT      0.042190
    215 H42        65.1691   63.1957   48.8581 U5         2 LUT      0.145166
    216 H41        66.9096   63.3173   49.6152 U5         2 LUT      0.145166
    217 H35        76.2303   64.3916   40.4013 T3         2 LUT      0.077919
    218 H34        77.0696   63.0833   37.6254 T2         2 LUT      0.073626
    219 H32        79.0314   63.4179   36.9571 T1         2 LUT      0.092510
    220 H31        80.9860   65.3110   38.2685 U9         2 LUT      0.070048
    221 H30        81.3717   63.9163   35.5476 U8         2 LUT      0.085442
    222 H3         64.9080   61.1521   49.7017 U3         2 LUT     -0.031596
    223 H28        83.4675   63.9363   34.7821 U7         2 LUT      0.084728
    224 H27        84.0681   66.9467   34.3186 U6         2 LUT      0.087291
    225 H26        84.6750   64.3855   32.8129 Q6         2 LUT      0.075325
    226 H24        86.2348   66.4570   30.0714 Q5         2 LUT      0.094482
    227 H23        88.3182   66.1364   31.8275 U3         2 LUT     -0.024869
    228 H22        66.1280   59.7046   48.8954 U2         2 LUT      0.127376
    229 H21        66.8946   59.7146   50.4547 U2         2 LUT      0.127376
    230 H15        74.7252   62.5154   38.4167 T3         2 LUT      0.093200
    231 H14        74.0582   63.9686   41.1213 T2         2 LUT      0.068865
    232 H12        72.2302   63.1213   42.3976 T1         2 LUT      0.095507
    233 H11        70.5046   60.8247   41.5953 U9         2 LUT      0.068930
    234 H10        70.9399   62.3477   44.0785 U8         2 LUT      0.083911
    235 H1         88.0303   64.2935   29.8322 Q1         2 LUT      0.297311
@<TRIPOS>BOND
    1     6     1 1
    2     7     2 1
    3     8     3 1
    4     9     4 1
    5    11     4 1
    6    12     6 1
    7    13     9 1
    8    16     9 1
    9    25     5 1
   10    25    16 1
   11    26    10 1
   12    26    17 1
   13    27    18 1
   14    28    14 1
   15    28    19 1
   16    29    12 1
   17    30    13 1
   18    31    24 1
   19    32     1 1
   20    32    25 1
   21    33    21 1
   22    33    26 1
   23    34    22 1
   24    34    27 1
   25    35    23 1
   26    35    28 1
   27    36    12 1
   28    36    24 1
   29    37    13 1
   30    37    15 1
   31    38    31 1
   32    39    20 1
   33    39    32 1
   34    40     2 1
   35    40    33 1
   36    41     3 1
   37    41    34 1
   38    42     4 1
   39    42    35 1
   40    43    38 1
   41    44     5 1
   42    44    17 1
   43    44    39 1
   44    45    10 1
   45    45    18 1
   46    45    40 1
   47    46    19 1
   48    46    41 1
   49    47    14 1
   50    47    16 1
   51    47    42 1
   52    48    38 1
   53    49    48 1
   54    50    49 1
   55    51    50 1
   56    52    51 1
   57    53    51 1
   58    54    53 1
   59    55    54 1
   60    56    55 1
   61    57    56 1
   62    58    56 1
   63    59    58 1
   64    60    59 1
   65    61    60 1
   66    62    61 1
   67    63    61 1
   68    64    27 1
   69    64    46 1
   70    65     5 1
   71    65    10 1
   72    65    64 1
   73    65    14 1
   74    66    23 1
   75    67    23 1
   76    68    23 1
   77    69    22 1
   78    70    22 1
   79    71    22 1
   80    72    21 1
   81    73    21 1
   82    74    21 1
   83    75    20 1
   84    76    20 1
   85    77    20 1
   86    78    15 1
   87    79    15 1
   88    80    15 1
   89    81     8 1
   90    82     8 1
   91    83     8 1
   92    84     7 1
   93    85     7 1
   94    86     6 1
   95    87     6 1
   96    88     3 1
   97    89     3 1
   98    90     1 1
   99    91     1 1
  100    92    63 1
  101    93    63 1
  102    94    63 1
  103    95    62 1
  104    96    62 1
  105    97    62 1
  106    98    60 1
  107    99    60 1
  108   100    59 1
  109   101    59 1
  110   102    58 1
  111   103    58 1
  112   104    57 1
  113   105    57 1
  114   106    57 1
  115   107    55 1
  116   108    55 1
  117   109    54 1
  118   110    54 1
  119   111    53 1
  120   112    53 1
  121   113    19 1
  122   114    18 1
  123   115    17 1
  124   116     9 1
  125   117     2 1
  126   118    52 1
  127   119    52 1
  128   120    52 1
  129   121    51 1
  130   122    50 1
  131   123    50 1
  132   124    49 1
  133   125    49 1
  134   126    48 1
  135   127    48 1
  136   128    43 1
  137   129    43 1
  138   130    43 1
  139   131    39 1
  140   132    32 1
  141   133    31 1
  142   134    61 1
  143   135    56 1
  144   136    24 1
  145   137    24 1
  146   139   138 1
  147   140   139 1
  148   141   140 1
  149   142   140 1
  150   143   142 1
  151   144   138 1
  152   144   143 1
  153   145   144 1
  154   146   145 1
  155   147   146 1
  156   148   147 1
  157   149   148 1
  158   150   149 1
  159   151   150 1
  160   152   151 1
  161   153   152 1
  162   154   138 1
  163   155   138 1
  164   156   143 1
  165   157   147 1
  166   158   151 1
  167   160   159 1
  168   161   160 1
  169   162   161 1
  170   163   161 1
  171   164   163 1
  172   165   159 1
  173   165   164 1
  174   166   165 1
  175   167   166 1
  176   168   167 1
  177   169   168 1
  178   170   169 1
  179   171   170 1
  180   172   171 1
  181   173   172 1
  182   174   153 1
  183   174   173 1
  184   175   159 1
  185   176   159 1
  186   177   164 1
  187   178   168 1
  188   179   172 1
  189   180   179 1
  190   181   179 1
  191   182   179 1
  192   183   178 1
  193   184   178 1
  194   185   178 1
  195   186   177 1
  196   187   177 1
  197   188   177 1
  198   189   176 1
  199   190   176 1
  200   191   176 1
  201   192   175 1
  202   193   175 1
  203   194   175 1
  204   195   160 1
  205   196   160 1
  206   197   158 1
  207   198   158 1
  208   199   158 1
  209   200   157 1
  210   201   157 1
  211   202   157 1
  212   203   156 1
  213   204   156 1
  214   205   156 1
  215   206   155 1
  216   207   155 1
  217   208   155 1
  218   209   154 1
  219   210   154 1
  220   211   154 1
  221   212   141 1
  222   213   146 1
  223   214   145 1
  224   215   142 1
  225   216   142 1
  226   217   174 1
  227   218   173 1
  228   219   171 1
  229   220   170 1
  230   221   169 1
  231   222   140 1
  232   223   167 1
  233   224   166 1
  234   225   165 1
  235   226   163 1
  236   227   161 1
  237   228   139 1
  238   229   139 1
  239   230   153 1
  240   231   152 1
  241   232   150 1
  242   233   149 1
  243   234   148 1
  244   235   162 1
  245   65    153 1
  246   65    174 1
@<TRIPOS>SUBSTRUCTURE
      1 CLA               1 ****               0 ****  **** 
      2 LUT             138 ****               0 ****  **** 
