@<TRIPOS>MOLECULE
Cpptraj generated mol2 file.
  235   246     2     0     0
SMALL
USER_CHARGES


@<TRIPOS>ATOM
      1 CAA        77.1430   57.9832   35.3784 a2         1 CLA     -0.055900
      2 CAB        77.3526   61.8096   44.2360 c8         1 CLA     -0.148500
      3 CAC        70.4225   57.8478   43.7694 a2         1 CLA     -0.012600
      4 CAD        73.1563   55.2773   36.7375 ck         1 CLA      0.398800
      5 NA         76.1635   58.5686   38.6689 ns         1 CLA     -0.225500
      6 CBA        78.3624   57.5614   34.5779 a2         1 CLA     -0.135000
      7 CBB        76.8516   61.2486   45.4046 c0         1 CLA     -0.395200
      8 CBC        70.5995   56.3693   43.8737 a3         1 CLA     -0.037700
      9 CBD        74.5856   55.8376   36.3604 a1         1 CLA     -0.053900
     10 NB         76.1057   60.2205   41.1330 nm         1 CLA     -0.295700
     11 OBD        72.5801   54.4137   36.0912 o2         1 CLA     -0.494600
     12 CGA        78.7612   56.0969   34.3084 c4         1 CLA      0.827000
     13 CGD        75.6148   54.7980   36.1938 c4         1 CLA      0.655300
     14 ND         73.4033   57.7336   39.2579 nm         1 CLA     -0.291600
     15 CED        76.8168   53.0365   37.3494 a3         1 CLA      0.005400
     16 CHA        74.8816   56.9484   37.4637 cs         1 CLA     -0.123800
     17 CHB        77.9810   59.8954   39.7325 aa         1 CLA     -0.291900
     18 CHC        74.7246   60.4366   43.1520 aa         1 CLA     -0.090400
     19 CHD        71.5712   57.6556   40.8105 aa         1 CLA     -0.052000
     20 CMA        79.6129   57.7439   38.1725 a3         1 CLA     -0.230700
     21 CMB        79.4058   61.8561   41.8573 a3         1 CLA     -0.180800
     22 CMC        72.4373   59.9760   45.2895 a3         1 CLA     -0.134000
     23 CMD        70.1925   55.8474   38.5755 a3         1 CLA     -0.141100
     24 C1         80.0295   54.3535   35.3518 a2         1 CLA      0.023000
     25 C1A        76.0121   57.7057   37.6580 ac         1 CLA     -0.015100
     26 C1B        77.4033   60.4878   40.8620 cr         1 CLA      0.054700
     27 C1C        73.6414   59.6752   42.9175 cn         1 CLA     -0.005600
     28 C1D        72.1642   57.2700   39.5956 ap         1 CLA     -0.047300
     29 O1A        78.6661   55.4950   33.1586 o2         1 CLA     -0.610800
     30 O1D        76.3771   54.6836   35.2200 o2         1 CLA     -0.558200
     31 C2         80.6186   54.0368   36.7088 c8         1 CLA     -0.325100
     32 C2A        77.2994   57.6304   36.8921 a1         1 CLA      0.098600
     33 C2B        77.9943   61.3245   41.8348 cb         1 CLA      0.088500
     34 C2C        72.5146   59.4558   43.8633 cb         1 CLA      0.053700
     35 C2D        71.6144   56.4145   38.6670 cb         1 CLA      0.058900
     36 O2A        79.4107   55.6593   35.4407 o1         1 CLA     -0.437200
     37 O2D        75.6669   53.9275   37.2639 o1         1 CLA     -0.357600
     38 C3         81.5804   53.1435   36.9197 c5         1 CLA      0.031200
     39 C3A        78.3795   58.4944   37.6370 a1         1 CLA      0.166800
     40 C3B        77.1010   61.3439   42.8678 cb         1 CLA      0.035000
     41 C3C        71.6575   58.5830   43.1810 cb         1 CLA     -0.089900
     42 C3D        72.7294   56.0831   37.8613 cb         1 CLA     -0.035900
     43 C4         81.2608   51.7492   37.5047 a3         1 CLA     -0.053300
     44 C4A        77.4074   59.0576   38.7343 ac         1 CLA      0.001800
     45 C4B        75.9065   60.6515   42.3769 cn         1 CLA     -0.020900
     46 C4C        72.1256   58.4458   41.8383 cr         1 CLA     -0.044400
     47 C4D        73.7161   56.9948   38.2079 c6         1 CLA     -0.046000
     48 C5         83.0658   53.4083   36.7511 a2         1 CLA     -0.070400
     49 C6         83.4780   54.8576   36.9018 a2         1 CLA      0.043900
     50 C7         83.6857   55.3766   38.3002 a2         1 CLA     -0.150000
     51 C8         83.7702   56.9124   38.5345 a1         1 CLA      0.064200
     52 C9         84.8951   57.5532   37.7532 a3         1 CLA     -0.259300
     53 C10        83.8261   57.3410   40.0241 a2         1 CLA     -0.071900
     54 C11        82.6515   57.0341   41.0098 a2         1 CLA      0.014500
     55 C12        82.6103   57.9937   42.1851 a2         1 CLA     -0.112100
     56 C13        83.8475   57.9307   43.1046 a1         1 CLA      0.089200
     57 C14        83.8588   56.5297   43.7764 a3         1 CLA     -0.239100
     58 C15        83.9121   59.1327   44.1197 a2         1 CLA     -0.102200
     59 C16        82.5826   59.5362   44.8234 a2         1 CLA      0.023900
     60 C17        82.7423   60.5467   45.9486 a2         1 CLA     -0.105700
     61 C18        81.4618   60.9550   46.7564 a1         1 CLA      0.206800
     62 C19        81.9940   61.9406   47.8884 a3         1 CLA     -0.280100
     63 C20        80.4465   61.6449   45.8201 a3         1 CLA     -0.280100
     64 NC         73.3305   59.1360   41.6931 nx         1 CLA     -0.309200
     65 MG         74.6493   59.0294   40.1249 mg         1 CLA      0.895000
     66 HMD3       69.9644   55.4499   37.5927 dc         1 CLA      0.064300
     67 HMD2       70.1011   54.9255   39.1326 dc         1 CLA      0.064300
     68 HMD1       69.5748   56.6555   38.9590 dc         1 CLA      0.064300
     69 HMC3       73.3143   59.7189   45.9311 dc         1 CLA      0.052100
     70 HMC2       72.2655   61.0679   45.2738 dc         1 CLA      0.052100
     71 HMC1       71.5744   59.5250   45.7846 dc         1 CLA      0.052100
     72 HMB3       79.5200   62.6674   42.5947 dc         1 CLA      0.063600
     73 HMB2       79.9901   61.0705   42.2966 dc         1 CLA      0.063600
     74 HMB1       79.7572   62.1052   40.8853 dc         1 CLA      0.063600
     75 HMA3       80.2667   57.5124   37.4145 dc         1 CLA      0.058300
     76 HMA2       80.1856   58.4380   38.8231 dc         1 CLA      0.058300
     77 HMA1       79.3528   56.8285   38.7830 dc         1 CLA      0.058300
     78 HED3       76.4911   51.9845   37.1636 dc         1 CLA      0.079300
     79 HED2       77.6604   53.3741   36.6753 dc         1 CLA      0.079300
     80 HED1       77.2355   52.9872   38.3518 dc         1 CLA      0.079300
     81 HBC3       70.7284   55.9579   42.8547 dc         1 CLA      0.016300
     82 HBC2       71.4802   56.2491   44.4887 dc         1 CLA      0.016300
     83 HBC1       69.7711   55.8392   44.4114 dc         1 CLA      0.016300
     84 HBB2       77.2629   61.4744   46.4145 da         1 CLA      0.183000
     85 HBB1       76.0877   60.4640   45.3693 da         1 CLA      0.183000
     86 HBA2       78.2805   58.0079   33.6182 dc         1 CLA      0.029400
     87 HBA1       79.2395   58.0316   35.0422 dc         1 CLA      0.029400
     88 HAC2       70.0794   58.3465   44.6686 dc         1 CLA      0.029300
     89 HAC1       69.6030   57.9957   43.0634 dc         1 CLA      0.029300
     90 HAA2       76.2597   57.4293   35.0263 dc         1 CLA      0.028700
     91 HAA1       76.8875   58.9949   35.1756 dc         1 CLA      0.028700
     92 H203       80.2823   60.9143   44.9885 dc         1 CLA      0.065600
     93 H202       79.5405   61.7831   46.4271 dc         1 CLA      0.065600
     94 H201       80.9428   62.6107   45.4625 dc         1 CLA      0.065600
     95 H193       82.2104   62.9032   47.4330 dc         1 CLA      0.065600
     96 H192       81.1954   62.0016   48.6120 dc         1 CLA      0.065600
     97 H191       82.8915   61.6249   48.4041 dc         1 CLA      0.065600
     98 H172       83.4452   60.1622   46.7531 dc         1 CLA      0.027600
     99 H171       83.0597   61.5260   45.6205 dc         1 CLA      0.027600
    100 H162       81.7388   59.8273   44.1794 dc         1 CLA      0.002900
    101 H161       82.1528   58.7205   45.4454 dc         1 CLA      0.002900
    102 H152       84.6509   58.8050   44.9298 dc         1 CLA      0.029100
    103 H151       84.4318   59.9701   43.6699 dc         1 CLA      0.029100
    104 H143       83.8568   55.7639   43.0196 dc         1 CLA      0.063600
    105 H142       84.7214   56.3126   44.2985 dc         1 CLA      0.063600
    106 H141       82.9540   56.4009   44.4480 dc         1 CLA      0.063600
    107 H122       82.4937   59.0716   41.7883 dc         1 CLA      0.032500
    108 H121       81.7433   57.8429   42.8662 dc         1 CLA      0.032500
    109 H112       81.7876   57.3256   40.4616 dc         1 CLA      0.006600
    110 H111       82.5303   55.9798   41.3271 dc         1 CLA      0.006600
    111 H102       84.7488   56.7928   40.2722 dc         1 CLA      0.024100
    112 H101       84.0920   58.4437   40.0856 dc         1 CLA      0.024100
    113 HHD        70.6330   57.0877   40.9932 da         1 CLA      0.174300
    114 HHC        74.7377   60.9114   44.0970 da         1 CLA      0.136800
    115 HHB        79.0233   60.0910   39.6976 da         1 CLA      0.138300
    116 HBD        74.4453   56.2787   35.4379 dc         1 CLA      0.107700
    117 HAB        78.1247   62.6161   44.4354 da         1 CLA      0.155200
    118 H93        85.8081   57.1474   38.1614 dc         1 CLA      0.069500
    119 H92        84.7936   57.4232   36.7250 dc         1 CLA      0.069500
    120 H91        84.8750   58.6296   37.8645 dc         1 CLA      0.069500
    121 H8         82.8161   57.3655   38.2096 dc         1 CLA      0.029300
    122 H72        82.8922   54.9455   38.9503 dc         1 CLA      0.044400
    123 H71        84.5218   54.8904   38.6759 dc         1 CLA      0.044400
    124 H62        84.4343   55.0916   36.3098 dc         1 CLA      0.015600
    125 H61        82.6692   55.5033   36.5451 dc         1 CLA      0.015600
    126 H52        83.4979   52.8718   37.5362 dc         1 CLA      0.033200
    127 H51        83.3611   52.9406   35.8378 dc         1 CLA      0.033200
    128 H43        81.5966   51.6290   38.5168 dc         1 CLA      0.037000
    129 H42        80.1264   51.5850   37.4409 dc         1 CLA      0.037000
    130 H41        81.7237   50.9681   36.9812 dc         1 CLA      0.037000
    131 H3A        78.7538   59.3072   37.0609 dc         1 CLA      0.041100
    132 H2A        77.6565   56.5687   36.9407 dc         1 CLA      0.083100
    133 H2         80.3451   54.7015   37.5552 da         1 CLA      0.180900
    134 H18        80.9529   60.0396   47.1325 dc         1 CLA     -0.003900
    135 H13        84.7257   57.9666   42.4594 dc         1 CLA      0.019700
    136 H12        79.2447   53.6527   35.1662 dc         1 CLA      0.120400
    137 H11        80.8215   54.2170   34.5712 dc         1 CLA      0.120400
    138 C1         67.6470   61.4816   50.7585 Z1         2 LUT      0.509236
    139 C2         66.2181   61.2682   51.2909 Z2         2 LUT     -0.434695
    140 C3         65.3258   62.5101   51.6725 Z3         2 LUT      0.437453
    141 O3         65.4817   62.7413   53.0300 S1         2 LUT     -0.547129
    142 C4         65.8508   63.7485   50.9051 Z4         2 LUT     -0.468603
    143 C5         66.6119   63.4636   49.6313 Z5         2 LUT      0.279246
    144 C6         67.5390   62.4719   49.5505 Z6         2 LUT     -0.305473
    145 C7         67.9438   62.0003   48.1730 Z7         2 LUT      0.069402
    146 C8         68.8931   62.4693   47.4272 Z8         2 LUT     -0.191631
    147 C9         69.1557   62.0067   46.0354 Z9         2 LUT      0.196698
    148 C10        69.9558   62.7960   45.2434 Y1         2 LUT     -0.208611
    149 C11        70.4853   62.5041   43.9686 Y2         2 LUT      0.030784
    150 C12        71.6247   63.1109   43.4996 Y3         2 LUT     -0.220316
    151 C13        72.4188   62.9016   42.3015 Y4         2 LUT      0.215937
    152 C14        73.5931   63.6399   42.2245 Y5         2 LUT     -0.185793
    153 C15        74.6623   63.5668   41.2828 Y6         2 LUT     -0.057835
    154 C16        68.2413   60.1417   50.4461 Y7         2 LUT     -0.405615
    155 C17        68.4260   62.2199   51.9429 Y7         2 LUT     -0.405615
    156 C18        65.9373   64.0775   48.3795 Y9         2 LUT     -0.369639
    157 C19        68.4746   60.7708   45.4124 W1         2 LUT     -0.333362
    158 C20        71.7649   62.2094   41.1735 W2         2 LUT     -0.323439
    159 C21        86.3280   64.8579   35.8295 Z1         2 LUT      0.406104
    160 C22        86.9289   64.2339   34.5929 Z2         2 LUT     -0.404965
    161 C23        87.1189   65.1561   33.4436 Z3         2 LUT      0.391255
    162 O23        87.4060   64.1893   32.4330 S1         2 LUT     -0.528210
    163 C24        85.8856   65.9974   33.1727 W6         2 LUT     -0.258361
    164 C25        84.8362   66.0328   33.9910 Z5         2 LUT      0.133546
    165 C26        84.8089   65.2995   35.3289 W8         2 LUT     -0.147008
    166 C27        84.0143   66.0295   36.4546 Z7         2 LUT      0.023843
    167 C28        82.7714   65.5820   36.7615 Z8         2 LUT     -0.216987
    168 C29        82.0660   66.0238   37.9352 Z9         2 LUT      0.206524
    169 C30        81.0768   65.1965   38.4596 Y1         2 LUT     -0.215556
    170 C31        80.2543   65.4066   39.5994 Y2         2 LUT      0.025142
    171 C32        79.0649   64.6983   39.7300 Y3         2 LUT     -0.212209
    172 C33        78.0966   64.8706   40.7339 Y4         2 LUT      0.240937
    173 C34        76.9450   64.1889   40.7247 Y5         2 LUT     -0.218862
    174 C35        75.7517   64.3801   41.5006 Y6         2 LUT     -0.023547
    175 C36        87.2346   66.0818   36.2066 Y7         2 LUT     -0.393485
    176 C37        86.3816   63.8149   36.9947 Y7         2 LUT     -0.393485
    177 C38        83.8069   67.1512   33.7235 Y9         2 LUT     -0.387526
    178 C39        82.4135   67.4284   38.3967 W1         2 LUT     -0.322618
    179 C40        78.4219   65.8281   41.8729 W2         2 LUT     -0.358472
    180 H403       79.2489   65.6726   42.4757 R7         2 LUT      0.097720
    181 H402       78.4513   66.9027   41.5802 R7         2 LUT      0.097720
    182 H401       77.6512   65.7226   42.6550 R7         2 LUT      0.097720
    183 H393       83.2773   67.2422   39.0924 R4         2 LUT      0.082505
    184 H392       82.6838   68.1151   37.5976 R4         2 LUT      0.082505
    185 H391       81.6204   67.8744   38.9757 R4         2 LUT      0.082505
    186 H383       84.1469   68.0494   34.0741 R1         2 LUT      0.104030
    187 H382       83.5942   67.1312   32.6026 R1         2 LUT      0.104030
    188 H381       82.8437   66.9080   34.1819 R1         2 LUT      0.104030
    189 H373       85.9314   64.1494   37.9177 T4         2 LUT      0.089537
    190 H372       85.7826   63.0157   36.5781 T4         2 LUT      0.089537
    191 H371       87.3648   63.5148   37.3200 T4         2 LUT      0.089537
    192 H363       88.1735   65.5138   36.3799 T4         2 LUT      0.089537
    193 H362       87.3457   66.8061   35.4599 T4         2 LUT      0.089537
    194 H361       86.8364   66.5951   37.1234 T4         2 LUT      0.089537
    195 H222       87.9200   63.7484   34.7839 U2         2 LUT      0.127376
    196 H221       86.2788   63.4688   34.1628 U2         2 LUT      0.127376
    197 H203       71.4999   61.1282   41.4661 R7         2 LUT      0.087068
    198 H202       70.9015   62.7306   40.6820 R7         2 LUT      0.087068
    199 H201       72.4215   61.9854   40.3675 R7         2 LUT      0.087068
    200 H193       67.5098   61.0688   45.0245 R4         2 LUT      0.089716
    201 H192       68.9265   60.3172   44.5293 R4         2 LUT      0.089716
    202 H191       68.1431   60.0621   46.1433 R4         2 LUT      0.089716
    203 H183       66.1214   63.4867   47.4670 R1         2 LUT      0.094572
    204 H182       64.8112   64.0369   48.5156 R1         2 LUT      0.094572
    205 H181       66.1913   65.0452   48.1204 R1         2 LUT      0.094572
    206 H173       69.4928   62.4901   51.6325 T4         2 LUT      0.093752
    207 H172       68.1466   63.2468   52.2279 T4         2 LUT      0.093752
    208 H171       68.6523   61.5460   52.8080 T4         2 LUT      0.093752
    209 H163       68.4919   59.6588   51.3500 T4         2 LUT      0.093752
    210 H162       67.4464   59.4560   49.9917 T4         2 LUT      0.093752
    211 H161       69.0657   60.2408   49.7519 T4         2 LUT      0.093752
    212 HO3        65.1390   62.0413   53.6476 Q1         2 LUT      0.300121
    213 H8         69.4167   63.3225   47.8767 U7         2 LUT      0.080784
    214 H7         67.3624   61.2260   47.6930 U6         2 LUT      0.042190
    215 H42        64.8853   64.1417   50.5660 U5         2 LUT      0.145166
    216 H41        66.4046   64.5325   51.5848 U5         2 LUT      0.145166
    217 H35        75.7475   65.0983   42.3521 T3         2 LUT      0.077919
    218 H34        76.9882   63.4068   39.9019 T2         2 LUT      0.073626
    219 H32        78.8111   63.9329   38.9723 T1         2 LUT      0.092510
    220 H31        80.3444   66.2783   40.2993 U9         2 LUT      0.070048
    221 H30        80.9428   64.2798   37.8988 U8         2 LUT      0.085442
    222 H3         64.2976   62.2390   51.4835 U3         2 LUT     -0.031596
    223 H28        82.2850   64.8320   36.1570 U7         2 LUT      0.084728
    224 H27        84.4062   66.8215   37.0827 U6         2 LUT      0.087291
    225 H26        84.1898   64.3899   35.1907 Q6         2 LUT      0.075325
    226 H24        85.9138   66.7251   32.3807 Q5         2 LUT      0.094482
    227 H23        88.0990   65.7261   33.6875 U3         2 LUT     -0.024869
    228 H22        65.6846   60.7429   50.4644 U2         2 LUT      0.127376
    229 H21        66.2220   60.5016   52.0254 U2         2 LUT      0.127376
    230 H15        74.7269   62.7594   40.5726 T3         2 LUT      0.093200
    231 H14        73.7299   64.5031   42.9285 T2         2 LUT      0.068865
    232 H12        72.0232   63.8683   44.1258 T1         2 LUT      0.095507
    233 H11        70.0784   61.5905   43.4286 U9         2 LUT      0.068930
    234 H10        70.4218   63.6114   45.8256 U8         2 LUT      0.083911
    235 H1         87.4651   64.6387   31.5681 Q1         2 LUT      0.297311
@<TRIPOS>BOND
    1     6     1 1
    2     7     2 1
    3     8     3 1
    4     9     4 1
    5    11     4 1
    6    12     6 1
    7    13     9 1
    8    16     9 1
    9    25     5 1
   10    25    16 1
   11    26    10 1
   12    26    17 1
   13    27    18 1
   14    28    14 1
   15    28    19 1
   16    29    12 1
   17    30    13 1
   18    31    24 1
   19    32     1 1
   20    32    25 1
   21    33    21 1
   22    33    26 1
   23    34    22 1
   24    34    27 1
   25    35    23 1
   26    35    28 1
   27    36    12 1
   28    36    24 1
   29    37    13 1
   30    37    15 1
   31    38    31 1
   32    39    20 1
   33    39    32 1
   34    40     2 1
   35    40    33 1
   36    41     3 1
   37    41    34 1
   38    42     4 1
   39    42    35 1
   40    43    38 1
   41    44     5 1
   42    44    17 1
   43    44    39 1
   44    45    10 1
   45    45    18 1
   46    45    40 1
   47    46    19 1
   48    46    41 1
   49    47    14 1
   50    47    16 1
   51    47    42 1
   52    48    38 1
   53    49    48 1
   54    50    49 1
   55    51    50 1
   56    52    51 1
   57    53    51 1
   58    54    53 1
   59    55    54 1
   60    56    55 1
   61    57    56 1
   62    58    56 1
   63    59    58 1
   64    60    59 1
   65    61    60 1
   66    62    61 1
   67    63    61 1
   68    64    27 1
   69    64    46 1
   70    65     5 1
   71    65    10 1
   72    65    64 1
   73    65    14 1
   74    66    23 1
   75    67    23 1
   76    68    23 1
   77    69    22 1
   78    70    22 1
   79    71    22 1
   80    72    21 1
   81    73    21 1
   82    74    21 1
   83    75    20 1
   84    76    20 1
   85    77    20 1
   86    78    15 1
   87    79    15 1
   88    80    15 1
   89    81     8 1
   90    82     8 1
   91    83     8 1
   92    84     7 1
   93    85     7 1
   94    86     6 1
   95    87     6 1
   96    88     3 1
   97    89     3 1
   98    90     1 1
   99    91     1 1
  100    92    63 1
  101    93    63 1
  102    94    63 1
  103    95    62 1
  104    96    62 1
  105    97    62 1
  106    98    60 1
  107    99    60 1
  108   100    59 1
  109   101    59 1
  110   102    58 1
  111   103    58 1
  112   104    57 1
  113   105    57 1
  114   106    57 1
  115   107    55 1
  116   108    55 1
  117   109    54 1
  118   110    54 1
  119   111    53 1
  120   112    53 1
  121   113    19 1
  122   114    18 1
  123   115    17 1
  124   116     9 1
  125   117     2 1
  126   118    52 1
  127   119    52 1
  128   120    52 1
  129   121    51 1
  130   122    50 1
  131   123    50 1
  132   124    49 1
  133   125    49 1
  134   126    48 1
  135   127    48 1
  136   128    43 1
  137   129    43 1
  138   130    43 1
  139   131    39 1
  140   132    32 1
  141   133    31 1
  142   134    61 1
  143   135    56 1
  144   136    24 1
  145   137    24 1
  146   139   138 1
  147   140   139 1
  148   141   140 1
  149   142   140 1
  150   143   142 1
  151   144   138 1
  152   144   143 1
  153   145   144 1
  154   146   145 1
  155   147   146 1
  156   148   147 1
  157   149   148 1
  158   150   149 1
  159   151   150 1
  160   152   151 1
  161   153   152 1
  162   154   138 1
  163   155   138 1
  164   156   143 1
  165   157   147 1
  166   158   151 1
  167   160   159 1
  168   161   160 1
  169   162   161 1
  170   163   161 1
  171   164   163 1
  172   165   159 1
  173   165   164 1
  174   166   165 1
  175   167   166 1
  176   168   167 1
  177   169   168 1
  178   170   169 1
  179   171   170 1
  180   172   171 1
  181   173   172 1
  182   174   153 1
  183   174   173 1
  184   175   159 1
  185   176   159 1
  186   177   164 1
  187   178   168 1
  188   179   172 1
  189   180   179 1
  190   181   179 1
  191   182   179 1
  192   183   178 1
  193   184   178 1
  194   185   178 1
  195   186   177 1
  196   187   177 1
  197   188   177 1
  198   189   176 1
  199   190   176 1
  200   191   176 1
  201   192   175 1
  202   193   175 1
  203   194   175 1
  204   195   160 1
  205   196   160 1
  206   197   158 1
  207   198   158 1
  208   199   158 1
  209   200   157 1
  210   201   157 1
  211   202   157 1
  212   203   156 1
  213   204   156 1
  214   205   156 1
  215   206   155 1
  216   207   155 1
  217   208   155 1
  218   209   154 1
  219   210   154 1
  220   211   154 1
  221   212   141 1
  222   213   146 1
  223   214   145 1
  224   215   142 1
  225   216   142 1
  226   217   174 1
  227   218   173 1
  228   219   171 1
  229   220   170 1
  230   221   169 1
  231   222   140 1
  232   223   167 1
  233   224   166 1
  234   225   165 1
  235   226   163 1
  236   227   161 1
  237   228   139 1
  238   229   139 1
  239   230   153 1
  240   231   152 1
  241   232   150 1
  242   233   149 1
  243   234   148 1
  244   235   162 1
  245   65    153 1
  246   65    174 1
@<TRIPOS>SUBSTRUCTURE
      1 CLA               1 ****               0 ****  **** 
      2 LUT             138 ****               0 ****  **** 
