@<TRIPOS>MOLECULE
Cpptraj generated mol2 file.
  235   246     2     0     0
SMALL
USER_CHARGES


@<TRIPOS>ATOM
      1 CAA        79.7997   58.2869   34.7698 a2         1 CLA     -0.055900
      2 CAB        79.9062   62.1434   43.5746 c8         1 CLA     -0.148500
      3 CAC        72.6203   58.7182   43.0276 a2         1 CLA     -0.012600
      4 CAD        75.4557   55.6516   36.1131 ck         1 CLA      0.398800
      5 NA         78.7693   58.8188   37.9870 ns         1 CLA     -0.225500
      6 CBA        81.0422   57.8532   33.8790 a2         1 CLA     -0.135000
      7 CBB        81.0614   61.9845   44.3201 c0         1 CLA     -0.395200
      8 CBC        72.7178   57.2103   43.3755 a3         1 CLA     -0.037700
      9 CBD        76.9076   56.2326   35.6150 a1         1 CLA     -0.053900
     10 NB         78.6434   60.3671   40.5768 nm         1 CLA     -0.295700
     11 OBD        74.8438   54.7220   35.5557 o2         1 CLA     -0.494600
     12 CGA        81.3513   56.4333   33.6152 c4         1 CLA      0.827000
     13 CGD        77.8928   55.0279   35.4247 c4         1 CLA      0.655300
     14 ND         75.8214   58.2322   38.5867 nm         1 CLA     -0.291600
     15 CED        78.4419   52.8672   36.1048 a3         1 CLA      0.005400
     16 CHA        77.2726   57.3308   36.7272 cs         1 CLA     -0.123800
     17 CHB        80.6146   60.0318   38.9650 aa         1 CLA     -0.291900
     18 CHC        77.2915   60.7898   42.5448 aa         1 CLA     -0.090400
     19 CHD        73.9471   58.1376   40.2001 aa         1 CLA     -0.052000
     20 CMA        82.0782   57.6015   37.6631 a3         1 CLA     -0.230700
     21 CMB        82.0715   61.9584   41.0377 a3         1 CLA     -0.180800
     22 CMC        74.7667   60.5739   44.6008 a3         1 CLA     -0.134000
     23 CMD        72.6868   56.1390   38.0660 a3         1 CLA     -0.141100
     24 C1         82.3834   54.5276   34.5178 a2         1 CLA      0.023000
     25 C1A        78.5279   57.9312   36.9654 ac         1 CLA     -0.015100
     26 C1B        80.0113   60.5552   40.1551 cr         1 CLA      0.054700
     27 C1C        76.0050   60.1839   42.3241 cn         1 CLA     -0.005600
     28 C1D        74.5623   57.7747   38.9451 ap         1 CLA     -0.047300
     29 O1A        80.9731   55.7478   32.6166 o2         1 CLA     -0.610800
     30 O1D        78.6999   54.9355   34.5322 o2         1 CLA     -0.558200
     31 C2         83.1362   54.1811   35.8078 c8         1 CLA     -0.325100
     32 C2A        79.8460   57.7594   36.1387 a1         1 CLA      0.098600
     33 C2B        80.6711   61.4133   41.1467 cb         1 CLA      0.088500
     34 C2C        74.8587   60.0482   43.1408 cb         1 CLA      0.053700
     35 C2D        73.9693   56.7980   38.0207 cb         1 CLA      0.058900
     36 O2A        82.0976   55.9277   34.6569 o1         1 CLA     -0.437200
     37 O2D        77.6904   54.0659   36.3722 o1         1 CLA     -0.357600
     38 C3         84.4454   54.0728   35.9651 c5         1 CLA      0.031200
     39 C3A        80.9579   58.4930   36.9504 a1         1 CLA      0.166800
     40 C3B        79.7745   61.5227   42.2135 cb         1 CLA      0.035000
     41 C3C        73.9180   59.2509   42.4766 cb         1 CLA     -0.089900
     42 C3D        75.0539   56.5826   37.2123 cb         1 CLA     -0.035900
     43 C4         85.0889   52.6803   35.6985 a3         1 CLA     -0.053300
     44 C4A        80.0790   59.2282   37.9351 ac         1 CLA      0.001800
     45 C4B        78.5210   60.8833   41.8287 cn         1 CLA     -0.020900
     46 C4C        74.4921   58.9623   41.1561 cr         1 CLA     -0.044400
     47 C4D        76.1214   57.4083   37.5576 c6         1 CLA     -0.046000
     48 C5         85.2807   55.2564   36.3927 a2         1 CLA     -0.070400
     49 C6         85.3718   55.6451   37.8991 a2         1 CLA      0.043900
     50 C7         86.1737   56.9089   38.1163 a2         1 CLA     -0.150000
     51 C8         87.7184   56.8357   38.3085 a1         1 CLA      0.064200
     52 C9         88.4819   56.1186   37.1161 a3         1 CLA     -0.259300
     53 C10        88.0010   56.2405   39.7516 a2         1 CLA     -0.071900
     54 C11        87.6846   57.1580   40.9855 a2         1 CLA      0.014500
     55 C12        88.1790   56.4057   42.2064 a2         1 CLA     -0.112100
     56 C13        88.1394   57.2207   43.5654 a1         1 CLA      0.089200
     57 C14        89.1905   56.6916   44.5114 a3         1 CLA     -0.239100
     58 C15        86.7264   57.1752   44.1564 a2         1 CLA     -0.102200
     59 C16        86.4776   58.2584   45.2349 a2         1 CLA      0.023900
     60 C17        84.9950   58.0643   45.5810 a2         1 CLA     -0.105700
     61 C18        84.5366   58.8175   46.8924 a1         1 CLA      0.206800
     62 C19        85.0783   60.2267   47.0566 a3         1 CLA     -0.280100
     63 C20        82.9715   58.7448   47.0083 a3         1 CLA     -0.280100
     64 NC         75.7346   59.5761   41.1166 nx         1 CLA     -0.309200
     65 MG         77.2109   59.4334   39.4812 mg         1 CLA      0.895000
     66 HMD3       72.4799   55.8096   39.0654 dc         1 CLA      0.064300
     67 HMD2       71.9175   56.8673   37.7660 dc         1 CLA      0.064300
     68 HMD1       72.6330   55.2381   37.4699 dc         1 CLA      0.064300
     69 HMC3       75.1770   59.7847   45.2465 dc         1 CLA      0.052100
     70 HMC2       75.4024   61.5035   44.6902 dc         1 CLA      0.052100
     71 HMC1       73.7258   60.8916   44.8889 dc         1 CLA      0.052100
     72 HMB3       82.3301   62.7508   41.8221 dc         1 CLA      0.063600
     73 HMB2       82.8186   61.1731   41.1712 dc         1 CLA      0.063600
     74 HMB1       82.1931   62.4632   40.0334 dc         1 CLA      0.063600
     75 HMA3       82.8645   58.1967   38.1813 dc         1 CLA      0.058300
     76 HMA2       81.6969   56.9470   38.4179 dc         1 CLA      0.058300
     77 HMA1       82.6497   56.9517   37.0021 dc         1 CLA      0.058300
     78 HED3       79.5089   52.9689   36.1596 dc         1 CLA      0.079300
     79 HED2       78.0992   52.0846   36.8024 dc         1 CLA      0.079300
     80 HED1       78.2756   52.4655   35.1060 dc         1 CLA      0.079300
     81 HBC3       73.0525   56.5882   42.5751 dc         1 CLA      0.016300
     82 HBC2       73.4140   57.1000   44.1902 dc         1 CLA      0.016300
     83 HBC1       71.7602   56.8139   43.7194 dc         1 CLA      0.016300
     84 HBB2       81.0715   62.1565   45.4299 da         1 CLA      0.183000
     85 HBB1       81.9611   61.4608   43.9473 da         1 CLA      0.183000
     86 HBA2       81.0030   58.3279   32.9601 dc         1 CLA      0.029400
     87 HBA1       81.8541   58.2757   34.3558 dc         1 CLA      0.029400
     88 HAC2       72.4371   59.3052   43.9817 dc         1 CLA      0.029300
     89 HAC1       71.7739   58.8001   42.3188 dc         1 CLA      0.029300
     90 HAA2       78.9216   57.9102   34.2978 dc         1 CLA      0.028700
     91 HAA1       79.5535   59.3735   34.7096 dc         1 CLA      0.028700
     92 H203       82.7232   57.7415   46.8672 dc         1 CLA      0.065600
     93 H202       82.8003   59.0650   48.0113 dc         1 CLA      0.065600
     94 H201       82.5318   59.3123   46.1393 dc         1 CLA      0.065600
     95 H193       84.3533   60.8708   46.6565 dc         1 CLA      0.065600
     96 H192       85.0712   60.3495   48.1143 dc         1 CLA      0.065600
     97 H191       86.0739   60.3651   46.7139 dc         1 CLA      0.065600
     98 H172       84.5559   58.5175   44.6847 dc         1 CLA      0.027600
     99 H171       84.7096   57.0101   45.6542 dc         1 CLA      0.027600
    100 H162       87.0684   57.9735   46.0804 dc         1 CLA      0.002900
    101 H161       86.6569   59.2993   44.8369 dc         1 CLA      0.002900
    102 H152       86.0400   57.4168   43.3079 dc         1 CLA      0.029100
    103 H151       86.4912   56.2261   44.5337 dc         1 CLA      0.029100
    104 H143       89.0295   55.6211   44.6512 dc         1 CLA      0.063600
    105 H142       90.1960   56.8902   44.1379 dc         1 CLA      0.063600
    106 H141       89.1353   57.1763   45.4734 dc         1 CLA      0.063600
    107 H122       87.6084   55.4678   42.3473 dc         1 CLA      0.032500
    108 H121       89.2022   56.2430   41.9148 dc         1 CLA      0.032500
    109 H112       88.2154   58.1408   40.7464 dc         1 CLA      0.006600
    110 H111       86.6368   57.4019   41.1995 dc         1 CLA      0.006600
    111 H102       87.3590   55.3242   39.8110 dc         1 CLA      0.024100
    112 H101       89.0738   56.0463   39.8130 dc         1 CLA      0.024100
    113 HHD        73.0001   57.7418   40.4198 da         1 CLA      0.174300
    114 HHC        77.3285   61.2957   43.5058 da         1 CLA      0.136800
    115 HHB        81.7367   60.1967   39.0859 da         1 CLA      0.138300
    116 HBD        76.6852   56.6947   34.6917 dc         1 CLA      0.107700
    117 HAB        79.0745   62.6209   44.0488 da         1 CLA      0.155200
    118 H93        88.2031   55.0859   36.9788 dc         1 CLA      0.069500
    119 H92        88.3344   56.5767   36.1090 dc         1 CLA      0.069500
    120 H91        89.5516   56.0304   37.3557 dc         1 CLA      0.069500
    121 H8         88.0713   57.9056   38.3213 dc         1 CLA      0.029300
    122 H72        86.1371   57.5107   37.2452 dc         1 CLA      0.044400
    123 H71        85.7342   57.3738   39.0365 dc         1 CLA      0.044400
    124 H62        84.4483   55.9739   38.2895 dc         1 CLA      0.015600
    125 H61        85.6865   54.8796   38.5922 dc         1 CLA      0.015600
    126 H52        86.3304   55.1945   36.0137 dc         1 CLA      0.033200
    127 H51        84.8451   56.0727   35.7735 dc         1 CLA      0.033200
    128 H43        84.4331   51.8245   35.6969 dc         1 CLA      0.037000
    129 H42        85.6169   52.6380   34.6910 dc         1 CLA      0.037000
    130 H41        85.8102   52.5253   36.5388 dc         1 CLA      0.037000
    131 H3A        81.4490   59.2550   36.2944 dc         1 CLA      0.041100
    132 H2A        80.0090   56.6543   36.1497 dc         1 CLA      0.083100
    133 H2         82.4546   53.9311   36.6055 da         1 CLA      0.180900
    134 H18        84.8620   58.1721   47.7337 dc         1 CLA     -0.003900
    135 H13        88.4246   58.2643   43.2925 dc         1 CLA      0.019700
    136 H12        81.4021   53.9377   34.5629 dc         1 CLA      0.120400
    137 H11        83.0196   54.2444   33.7369 dc         1 CLA      0.120400
    138 C1         69.9404   62.2020   49.3913 Z1         2 LUT      0.509236
    139 C2         68.8651   61.9031   50.4565 Z2         2 LUT     -0.434695
    140 C3         67.9252   63.0003   51.0123 Z3         2 LUT      0.437453
    141 O3         68.4116   63.4173   52.3112 S1         2 LUT     -0.547129
    142 C4         68.1115   64.2534   50.1190 Z4         2 LUT     -0.468603
    143 C5         68.4154   63.9984   48.6971 Z5         2 LUT      0.279246
    144 C6         69.3263   63.0978   48.3271 Z6         2 LUT     -0.305473
    145 C7         69.5674   62.6685   46.9243 Z7         2 LUT      0.069402
    146 C8         70.7126   63.0759   46.3089 Z8         2 LUT     -0.191631
    147 C9         71.3335   62.8511   44.9653 Z9         2 LUT      0.196698
    148 C10        72.5025   63.4105   44.6614 Y1         2 LUT     -0.208611
    149 C11        73.3809   63.3362   43.4511 Y2         2 LUT      0.030784
    150 C12        74.5681   63.9573   43.4982 Y3         2 LUT     -0.220316
    151 C13        75.5666   63.9561   42.4145 Y4         2 LUT      0.215937
    152 C14        76.7101   64.6429   42.6977 Y5         2 LUT     -0.185793
    153 C15        77.8896   64.5242   41.8551 Y6         2 LUT     -0.057835
    154 C16        70.4741   60.7895   49.0106 Y7         2 LUT     -0.405615
    155 C17        71.0474   62.8734   50.3554 Y7         2 LUT     -0.405615
    156 C18        67.6308   64.9946   47.8342 Y9         2 LUT     -0.369639
    157 C19        70.6357   61.8217   44.0418 W1         2 LUT     -0.333362
    158 C20        75.2286   63.5071   41.0282 W2         2 LUT     -0.323439
    159 C21        88.3404   65.1580   34.7195 Z1         2 LUT      0.406104
    160 C22        88.8092   64.3756   33.4165 Z2         2 LUT     -0.404965
    161 C23        89.0167   65.2514   32.1701 Z3         2 LUT      0.391255
    162 O23        89.2139   64.2101   31.2351 S1         2 LUT     -0.528210
    163 C24        87.8526   66.2508   32.0075 W6         2 LUT     -0.258361
    164 C25        87.0116   66.5023   32.9854 Z5         2 LUT      0.133546
    165 C26        87.0107   65.8365   34.3518 W8         2 LUT     -0.147008
    166 C27        86.4387   66.6853   35.4241 Z7         2 LUT      0.023843
    167 C28        85.4130   66.2647   36.2381 Z8         2 LUT     -0.216987
    168 C29        84.6858   66.9336   37.3284 Z9         2 LUT      0.206524
    169 C30        83.7738   66.1740   38.0890 Y1         2 LUT     -0.215556
    170 C31        82.8953   66.5204   39.2331 Y2         2 LUT      0.025142
    171 C32        81.9650   65.7149   39.7336 Y3         2 LUT     -0.212209
    172 C33        81.1159   66.0966   40.8869 Y4         2 LUT      0.240937
    173 C34        80.0858   65.1764   41.1117 Y5         2 LUT     -0.218862
    174 C35        79.0561   65.1677   42.0629 Y6         2 LUT     -0.023547
    175 C36        89.4108   66.1356   35.1372 Y7         2 LUT     -0.393485
    176 C37        88.1995   64.0789   35.8037 Y7         2 LUT     -0.393485
    177 C38        85.7956   67.3899   32.7474 Y9         2 LUT     -0.387526
    178 C39        85.3023   68.2825   37.6530 W1         2 LUT     -0.322618
    179 C40        81.2739   67.3340   41.5473 W2         2 LUT     -0.358472
    180 H403       82.3385   67.5702   41.8163 R7         2 LUT      0.097720
    181 H402       80.9339   68.1740   40.9248 R7         2 LUT      0.097720
    182 H401       80.7179   67.3563   42.5282 R7         2 LUT      0.097720
    183 H393       86.2874   68.0893   38.0755 R4         2 LUT      0.082505
    184 H392       85.2169   68.9539   36.8478 R4         2 LUT      0.082505
    185 H391       84.7836   68.8106   38.5109 R4         2 LUT      0.082505
    186 H383       85.9324   68.5152   32.7822 R1         2 LUT      0.104030
    187 H382       85.3297   67.1444   31.8318 R1         2 LUT      0.104030
    188 H381       85.0885   67.1950   33.5923 R1         2 LUT      0.104030
    189 H373       87.3661   63.4259   35.5469 T4         2 LUT      0.089537
    190 H372       89.0499   63.3401   35.8681 T4         2 LUT      0.089537
    191 H371       87.9945   64.5833   36.7598 T4         2 LUT      0.089537
    192 H363       89.3082   66.6517   36.0908 T4         2 LUT      0.089537
    193 H362       90.3896   65.7286   35.1108 T4         2 LUT      0.089537
    194 H361       89.4165   67.0066   34.4695 T4         2 LUT      0.089537
    195 H222       89.6866   63.8604   33.6502 U2         2 LUT      0.127376
    196 H221       88.1829   63.4766   33.2555 U2         2 LUT      0.127376
    197 H203       74.1236   63.6662   40.9687 R7         2 LUT      0.087068
    198 H202       75.7506   64.0429   40.2107 R7         2 LUT      0.087068
    199 H201       75.3680   62.4191   40.8940 R7         2 LUT      0.087068
    200 H193       71.2650   61.0217   43.5649 R4         2 LUT      0.089716
    201 H192       69.8276   61.3861   44.5578 R4         2 LUT      0.089716
    202 H191       70.3303   62.4070   43.1658 R4         2 LUT      0.089716
    203 H183       66.5666   64.8909   48.0197 R1         2 LUT      0.094572
    204 H182       67.8875   65.9262   48.1860 R1         2 LUT      0.094572
    205 H181       67.8978   64.8634   46.8109 R1         2 LUT      0.094572
    206 H173       71.7831   63.1183   49.6659 T4         2 LUT      0.093752
    207 H172       70.6598   63.7496   50.9345 T4         2 LUT      0.093752
    208 H171       71.3864   62.0999   51.1512 T4         2 LUT      0.093752
    209 H163       71.3937   60.8429   48.4042 T4         2 LUT      0.093752
    210 H162       70.6771   60.0779   49.8654 T4         2 LUT      0.093752
    211 H161       69.6665   60.3303   48.4478 T4         2 LUT      0.093752
    212 HO3        67.9219   62.8983   53.0130 Q1         2 LUT      0.300121
    213 H8         71.3677   63.7126   46.9402 U7         2 LUT      0.080784
    214 H7         68.8872   62.0734   46.3348 U6         2 LUT      0.042190
    215 H42        67.2243   64.8352   50.1020 U5         2 LUT      0.145166
    216 H41        68.8238   64.9768   50.5719 U5         2 LUT      0.145166
    217 H35        79.0776   65.9231   42.8298 T3         2 LUT      0.077919
    218 H34        80.1448   64.4089   40.4198 T2         2 LUT      0.073626
    219 H32        81.8567   64.7627   39.2267 T1         2 LUT      0.092510
    220 H31        82.9628   67.5616   39.5798 U9         2 LUT      0.070048
    221 H30        83.6527   65.1338   37.7192 U8         2 LUT      0.085442
    222 H3         66.9515   62.5751   51.0253 U3         2 LUT     -0.031596
    223 H28        85.2215   65.2099   36.0707 U7         2 LUT      0.084728
    224 H27        86.8821   67.6169   35.5445 U6         2 LUT      0.087291
    225 H26        86.3502   65.0096   33.9994 Q6         2 LUT      0.075325
    226 H24        87.6031   66.6380   30.9935 Q5         2 LUT      0.094482
    227 H23        89.9041   65.8098   32.4539 U3         2 LUT     -0.024869
    228 H22        68.1053   61.2587   49.9256 U2         2 LUT      0.127376
    229 H21        69.3263   61.3814   51.2399 U2         2 LUT      0.127376
    230 H15        77.8690   63.9178   40.9398 T3         2 LUT      0.093200
    231 H14        76.8354   65.2347   43.6013 T2         2 LUT      0.068865
    232 H12        74.8331   64.4778   44.4471 T1         2 LUT      0.095507
    233 H11        73.0846   62.7438   42.5416 U9         2 LUT      0.068930
    234 H10        72.9540   64.0410   45.3943 U8         2 LUT      0.083911
    235 H1         89.4351   64.5150   30.3393 Q1         2 LUT      0.297311
@<TRIPOS>BOND
    1     6     1 1
    2     7     2 1
    3     8     3 1
    4     9     4 1
    5    11     4 1
    6    12     6 1
    7    13     9 1
    8    16     9 1
    9    25     5 1
   10    25    16 1
   11    26    10 1
   12    26    17 1
   13    27    18 1
   14    28    14 1
   15    28    19 1
   16    29    12 1
   17    30    13 1
   18    31    24 1
   19    32     1 1
   20    32    25 1
   21    33    21 1
   22    33    26 1
   23    34    22 1
   24    34    27 1
   25    35    23 1
   26    35    28 1
   27    36    12 1
   28    36    24 1
   29    37    13 1
   30    37    15 1
   31    38    31 1
   32    39    20 1
   33    39    32 1
   34    40     2 1
   35    40    33 1
   36    41     3 1
   37    41    34 1
   38    42     4 1
   39    42    35 1
   40    43    38 1
   41    44     5 1
   42    44    17 1
   43    44    39 1
   44    45    10 1
   45    45    18 1
   46    45    40 1
   47    46    19 1
   48    46    41 1
   49    47    14 1
   50    47    16 1
   51    47    42 1
   52    48    38 1
   53    49    48 1
   54    50    49 1
   55    51    50 1
   56    52    51 1
   57    53    51 1
   58    54    53 1
   59    55    54 1
   60    56    55 1
   61    57    56 1
   62    58    56 1
   63    59    58 1
   64    60    59 1
   65    61    60 1
   66    62    61 1
   67    63    61 1
   68    64    27 1
   69    64    46 1
   70    65     5 1
   71    65    10 1
   72    65    64 1
   73    65    14 1
   74    66    23 1
   75    67    23 1
   76    68    23 1
   77    69    22 1
   78    70    22 1
   79    71    22 1
   80    72    21 1
   81    73    21 1
   82    74    21 1
   83    75    20 1
   84    76    20 1
   85    77    20 1
   86    78    15 1
   87    79    15 1
   88    80    15 1
   89    81     8 1
   90    82     8 1
   91    83     8 1
   92    84     7 1
   93    85     7 1
   94    86     6 1
   95    87     6 1
   96    88     3 1
   97    89     3 1
   98    90     1 1
   99    91     1 1
  100    92    63 1
  101    93    63 1
  102    94    63 1
  103    95    62 1
  104    96    62 1
  105    97    62 1
  106    98    60 1
  107    99    60 1
  108   100    59 1
  109   101    59 1
  110   102    58 1
  111   103    58 1
  112   104    57 1
  113   105    57 1
  114   106    57 1
  115   107    55 1
  116   108    55 1
  117   109    54 1
  118   110    54 1
  119   111    53 1
  120   112    53 1
  121   113    19 1
  122   114    18 1
  123   115    17 1
  124   116     9 1
  125   117     2 1
  126   118    52 1
  127   119    52 1
  128   120    52 1
  129   121    51 1
  130   122    50 1
  131   123    50 1
  132   124    49 1
  133   125    49 1
  134   126    48 1
  135   127    48 1
  136   128    43 1
  137   129    43 1
  138   130    43 1
  139   131    39 1
  140   132    32 1
  141   133    31 1
  142   134    61 1
  143   135    56 1
  144   136    24 1
  145   137    24 1
  146   139   138 1
  147   140   139 1
  148   141   140 1
  149   142   140 1
  150   143   142 1
  151   144   138 1
  152   144   143 1
  153   145   144 1
  154   146   145 1
  155   147   146 1
  156   148   147 1
  157   149   148 1
  158   150   149 1
  159   151   150 1
  160   152   151 1
  161   153   152 1
  162   154   138 1
  163   155   138 1
  164   156   143 1
  165   157   147 1
  166   158   151 1
  167   160   159 1
  168   161   160 1
  169   162   161 1
  170   163   161 1
  171   164   163 1
  172   165   159 1
  173   165   164 1
  174   166   165 1
  175   167   166 1
  176   168   167 1
  177   169   168 1
  178   170   169 1
  179   171   170 1
  180   172   171 1
  181   173   172 1
  182   174   153 1
  183   174   173 1
  184   175   159 1
  185   176   159 1
  186   177   164 1
  187   178   168 1
  188   179   172 1
  189   180   179 1
  190   181   179 1
  191   182   179 1
  192   183   178 1
  193   184   178 1
  194   185   178 1
  195   186   177 1
  196   187   177 1
  197   188   177 1
  198   189   176 1
  199   190   176 1
  200   191   176 1
  201   192   175 1
  202   193   175 1
  203   194   175 1
  204   195   160 1
  205   196   160 1
  206   197   158 1
  207   198   158 1
  208   199   158 1
  209   200   157 1
  210   201   157 1
  211   202   157 1
  212   203   156 1
  213   204   156 1
  214   205   156 1
  215   206   155 1
  216   207   155 1
  217   208   155 1
  218   209   154 1
  219   210   154 1
  220   211   154 1
  221   212   141 1
  222   213   146 1
  223   214   145 1
  224   215   142 1
  225   216   142 1
  226   217   174 1
  227   218   173 1
  228   219   171 1
  229   220   170 1
  230   221   169 1
  231   222   140 1
  232   223   167 1
  233   224   166 1
  234   225   165 1
  235   226   163 1
  236   227   161 1
  237   228   139 1
  238   229   139 1
  239   230   153 1
  240   231   152 1
  241   232   150 1
  242   233   149 1
  243   234   148 1
  244   235   162 1
  245   65    153 1
  246   65    174 1
@<TRIPOS>SUBSTRUCTURE
      1 CLA               1 ****               0 ****  **** 
      2 LUT             138 ****               0 ****  **** 
