@<TRIPOS>MOLECULE
Cpptraj generated mol2 file.
  235   246     2     0     0
SMALL
USER_CHARGES


@<TRIPOS>ATOM
      1 CAA        77.8274   58.5318   34.4461 a2         1 CLA     -0.055900
      2 CAB        77.2242   61.9987   43.4235 c8         1 CLA     -0.148500
      3 CAC        70.7661   57.1493   42.7036 a2         1 CLA     -0.012600
      4 CAD        73.9171   55.8242   35.0685 ck         1 CLA      0.398800
      5 NA         76.6168   58.6658   37.7348 ns         1 CLA     -0.225500
      6 CBA        79.0995   58.5518   33.5428 a2         1 CLA     -0.135000
      7 CBB        76.9645   61.3471   44.5833 c0         1 CLA     -0.395200
      8 CBC        70.8776   55.6472   42.4543 a3         1 CLA     -0.037700
      9 CBD        75.3123   56.3147   34.9583 a1         1 CLA     -0.053900
     10 NB         76.3122   59.9950   40.3382 nm         1 CLA     -0.295700
     11 OBD        73.3852   55.1121   34.2233 o2         1 CLA     -0.494600
     12 CGA        79.6901   57.1427   33.1540 c4         1 CLA      0.827000
     13 CGD        76.2721   55.1338   34.8029 c4         1 CLA      0.655300
     14 ND         73.9051   57.5616   38.1062 nm         1 CLA     -0.291600
     15 CED        77.0966   53.1190   35.8958 a3         1 CLA      0.005400
     16 CHA        75.4626   57.1552   36.2174 cs         1 CLA     -0.123800
     17 CHB        78.2756   60.0648   38.8168 aa         1 CLA     -0.291900
     18 CHC        74.7586   60.2252   42.2617 aa         1 CLA     -0.090400
     19 CHD        72.0858   57.0777   39.7452 aa         1 CLA     -0.052000
     20 CMA        79.9875   58.0263   37.4165 a3         1 CLA     -0.230700
     21 CMB        79.3236   62.1909   40.8446 a3         1 CLA     -0.180800
     22 CMC        72.4238   59.4638   44.2208 a3         1 CLA     -0.134000
     23 CMD        71.2182   55.1132   37.3000 a3         1 CLA     -0.141100
     24 C1         80.6954   55.1519   34.0232 a2         1 CLA      0.023000
     25 C1A        76.5958   57.9281   36.5559 ac         1 CLA     -0.015100
     26 C1B        77.5809   60.4532   39.9945 cr         1 CLA      0.054700
     27 C1C        73.7786   59.3050   41.9273 cn         1 CLA     -0.005600
     28 C1D        72.7203   56.9506   38.4338 ap         1 CLA     -0.047300
     29 O1A        79.5228   56.5687   32.1112 o2         1 CLA     -0.610800
     30 O1D        77.0943   55.1157   33.8912 o2         1 CLA     -0.558200
     31 C2         80.9830   54.6631   35.4415 c8         1 CLA     -0.325100
     32 C2A        77.9881   58.0070   35.8369 a1         1 CLA      0.098600
     33 C2B        78.0009   61.4632   40.9799 cb         1 CLA      0.088500
     34 C2C        72.6128   58.9432   42.7748 cb         1 CLA      0.053700
     35 C2D        72.3677   56.1151   37.3622 cb         1 CLA      0.058900
     36 O2A        80.4621   56.5536   34.1435 o1         1 CLA     -0.437200
     37 O2D        76.1621   54.2312   35.8589 o1         1 CLA     -0.357600
     38 C3         81.6885   53.5891   35.7494 c5         1 CLA      0.031200
     39 C3A        78.8428   58.8477   36.7486 a1         1 CLA      0.166800
     40 C3B        77.0748   61.3935   42.0275 cb         1 CLA      0.035000
     41 C3C        71.9699   57.9235   42.1650 cb         1 CLA     -0.089900
     42 C3D        73.4195   56.2371   36.3811 cb         1 CLA     -0.035900
     43 C4         81.0600   52.1923   36.1266 a3         1 CLA     -0.053300
     44 C4A        77.8432   59.1888   37.8274 ac         1 CLA      0.001800
     45 C4B        75.9425   60.5532   41.5579 cn         1 CLA     -0.020900
     46 C4C        72.5507   57.8238   40.8622 cr         1 CLA     -0.044400
     47 C4D        74.3302   57.0617   36.9745 c6         1 CLA     -0.046000
     48 C5         83.1751   53.6522   35.5808 a2         1 CLA     -0.070400
     49 C6         83.8607   54.9079   36.0700 a2         1 CLA      0.043900
     50 C7         83.6776   55.1287   37.6345 a2         1 CLA     -0.150000
     51 C8         84.1871   56.5297   38.1106 a1         1 CLA      0.064200
     52 C9         85.6439   56.7565   37.7463 a3         1 CLA     -0.259300
     53 C10        84.1021   56.8658   39.6580 a2         1 CLA     -0.071900
     54 C11        82.7068   56.9644   40.2946 a2         1 CLA      0.014500
     55 C12        82.6164   57.8587   41.5312 a2         1 CLA     -0.112100
     56 C13        83.7027   57.7439   42.6411 a1         1 CLA      0.089200
     57 C14        83.6947   56.3695   43.4408 a3         1 CLA     -0.239100
     58 C15        83.7442   59.1083   43.5265 a2         1 CLA     -0.102200
     59 C16        82.5735   59.3060   44.4688 a2         1 CLA      0.023900
     60 C17        82.6591   60.7183   45.0877 a2         1 CLA     -0.105700
     61 C18        81.6584   61.1317   46.0860 a1         1 CLA      0.206800
     62 C19        81.9757   62.6183   46.5793 a3         1 CLA     -0.280100
     63 C20        80.2424   61.0919   45.4972 a3         1 CLA     -0.280100
     64 NC         73.6654   58.6416   40.7644 nx         1 CLA     -0.309200
     65 MG         75.1309   58.7675   39.1934 mg         1 CLA      0.895000
     66 HMD3       71.2809   54.4906   38.2610 dc         1 CLA      0.064300
     67 HMD2       70.3124   55.6324   37.1991 dc         1 CLA      0.064300
     68 HMD1       71.5252   54.5553   36.3604 dc         1 CLA      0.064300
     69 HMC3       72.7410   60.5103   44.3699 dc         1 CLA      0.052100
     70 HMC2       71.3953   59.3863   44.4920 dc         1 CLA      0.052100
     71 HMC1       73.0339   58.9716   44.9573 dc         1 CLA      0.052100
     72 HMB3       79.4779   62.5764   41.8502 dc         1 CLA      0.063600
     73 HMB2       80.1120   61.4088   40.6433 dc         1 CLA      0.063600
     74 HMB1       79.3617   63.0395   40.1486 dc         1 CLA      0.063600
     75 HMA3       80.6951   57.8192   36.6327 dc         1 CLA      0.058300
     76 HMA2       80.4695   58.5912   38.1772 dc         1 CLA      0.058300
     77 HMA1       79.5609   57.0687   37.7870 dc         1 CLA      0.058300
     78 HED3       77.2224   52.8015   36.9278 dc         1 CLA      0.079300
     79 HED2       76.7251   52.3095   35.2487 dc         1 CLA      0.079300
     80 HED1       78.1393   53.3035   35.5462 dc         1 CLA      0.079300
     81 HBC3       70.3878   54.9892   43.2708 dc         1 CLA      0.016300
     82 HBC2       70.5020   55.4626   41.4942 dc         1 CLA      0.016300
     83 HBC1       71.9014   55.4674   42.5362 dc         1 CLA      0.016300
     84 HBB2       77.0514   61.7901   45.5793 da         1 CLA      0.183000
     85 HBB1       76.4790   60.2963   44.5274 da         1 CLA      0.183000
     86 HBA2       78.8943   58.9853   32.5677 dc         1 CLA      0.029400
     87 HBA1       79.9102   59.0904   34.0140 dc         1 CLA      0.029400
     88 HAC2       70.6332   57.2060   43.7175 dc         1 CLA      0.029300
     89 HAC1       69.8613   57.4672   42.2088 dc         1 CLA      0.029300
     90 HAA2       77.2787   57.7596   33.8950 dc         1 CLA      0.028700
     91 HAA1       77.2255   59.4681   34.5622 dc         1 CLA      0.028700
     92 H203       79.4203   61.1872   46.2707 dc         1 CLA      0.065600
     93 H202       80.2744   61.9087   44.7459 dc         1 CLA      0.065600
     94 H201       80.0096   60.1506   45.0575 dc         1 CLA      0.065600
     95 H193       81.1642   62.9502   47.1415 dc         1 CLA      0.065600
     96 H192       82.8987   62.6657   47.1979 dc         1 CLA      0.065600
     97 H191       82.1105   63.2199   45.6881 dc         1 CLA      0.065600
     98 H172       83.6272   60.7332   45.5820 dc         1 CLA      0.027600
     99 H171       82.6521   61.4348   44.2714 dc         1 CLA      0.027600
    100 H162       81.6200   59.1417   43.9582 dc         1 CLA      0.002900
    101 H161       82.6333   58.6318   45.3842 dc         1 CLA      0.002900
    102 H152       84.6846   59.0324   44.0933 dc         1 CLA      0.029100
    103 H151       83.7424   59.9154   42.8215 dc         1 CLA      0.029100
    104 H143       83.6805   55.4939   42.6367 dc         1 CLA      0.063600
    105 H142       84.5537   56.2677   44.1028 dc         1 CLA      0.063600
    106 H141       82.8672   56.0713   44.1106 dc         1 CLA      0.063600
    107 H122       82.6024   58.8909   41.1670 dc         1 CLA      0.032500
    108 H121       81.6889   57.6898   42.0036 dc         1 CLA      0.032500
    109 H112       82.0292   57.3587   39.5233 dc         1 CLA      0.006600
    110 H111       82.3725   55.9695   40.5133 dc         1 CLA      0.006600
    111 H102       84.7226   56.1393   40.1218 dc         1 CLA      0.024100
    112 H101       84.6436   57.7772   39.7910 dc         1 CLA      0.024100
    113 HHD        71.1575   56.6051   39.8104 da         1 CLA      0.174300
    114 HHC        74.5558   60.6978   43.2427 da         1 CLA      0.136800
    115 HHB        79.2494   60.5415   38.7578 da         1 CLA      0.138300
    116 HBD        75.3813   57.0484   34.1692 dc         1 CLA      0.107700
    117 HAB        77.5932   63.0520   43.4029 da         1 CLA      0.155200
    118 H93        85.7005   56.9358   36.6859 dc         1 CLA      0.069500
    119 H92        85.9990   57.6765   38.1952 dc         1 CLA      0.069500
    120 H91        86.3929   56.0039   37.9983 dc         1 CLA      0.069500
    121 H8         83.4457   57.1198   37.5166 dc         1 CLA      0.029300
    122 H72        82.6150   55.0466   37.7794 dc         1 CLA      0.044400
    123 H71        84.2011   54.4141   38.2153 dc         1 CLA      0.044400
    124 H62        84.8780   54.9089   35.7289 dc         1 CLA      0.015600
    125 H61        83.5022   55.7462   35.4803 dc         1 CLA      0.015600
    126 H52        83.5459   52.8742   36.2162 dc         1 CLA      0.033200
    127 H51        83.4385   53.5361   34.5745 dc         1 CLA      0.033200
    128 H43        80.0050   52.1570   35.9248 dc         1 CLA      0.037000
    129 H42        81.6935   51.4367   35.5663 dc         1 CLA      0.037000
    130 H41        81.1120   51.9511   37.1854 dc         1 CLA      0.037000
    131 H3A        79.1312   59.7609   36.1900 dc         1 CLA      0.041100
    132 H2A        78.4405   56.9964   35.7661 dc         1 CLA      0.083100
    133 H2         80.7032   55.2843   36.2349 da         1 CLA      0.180900
    134 H18        81.6574   60.4879   46.9977 dc         1 CLA     -0.003900
    135 H13        84.6956   57.8146   42.1824 dc         1 CLA      0.019700
    136 H12        79.8953   54.5983   33.4693 dc         1 CLA      0.120400
    137 H11        81.6186   55.0304   33.4294 dc         1 CLA      0.120400
    138 C1         68.1937   61.1197   50.5003 Z1         2 LUT      0.509236
    139 C2         66.8681   60.8631   51.2063 Z2         2 LUT     -0.434695
    140 C3         65.9319   62.0487   51.4615 Z3         2 LUT      0.437453
    141 O3         66.0849   62.4320   52.8099 S1         2 LUT     -0.547129
    142 C4         66.0568   63.1949   50.4100 Z4         2 LUT     -0.468603
    143 C5         66.9628   63.0077   49.2229 Z5         2 LUT      0.279246
    144 C6         67.9404   62.0207   49.2151 Z6         2 LUT     -0.305473
    145 C7         68.3919   61.4447   47.9311 Z7         2 LUT      0.069402
    146 C8         69.0016   62.1427   46.9816 Z8         2 LUT     -0.191631
    147 C9         69.4857   61.6137   45.6433 Z9         2 LUT      0.196698
    148 C10        70.4118   62.3293   44.8953 Y1         2 LUT     -0.208611
    149 C11        70.8597   62.1436   43.4973 Y2         2 LUT      0.030784
    150 C12        71.8687   63.0360   43.1731 Y3         2 LUT     -0.220316
    151 C13        72.6659   63.1389   41.9790 Y4         2 LUT      0.215937
    152 C14        73.8595   63.8393   42.0032 Y5         2 LUT     -0.185793
    153 C15        74.8287   63.9777   40.9841 Y6         2 LUT     -0.057835
    154 C16        68.9941   59.8332   50.2500 Y7         2 LUT     -0.405615
    155 C17        69.0215   61.9734   51.4817 Y7         2 LUT     -0.405615
    156 C18        66.4259   63.6192   47.9153 Y9         2 LUT     -0.369639
    157 C19        68.7639   60.3286   45.1789 W1         2 LUT     -0.333362
    158 C20        72.2766   62.4009   40.7093 W2         2 LUT     -0.323439
    159 C21        85.9487   65.5509   35.0509 Z1         2 LUT      0.406104
    160 C22        86.6946   65.0645   33.7990 Z2         2 LUT     -0.404965
    161 C23        87.0122   66.1074   32.7116 Z3         2 LUT      0.391255
    162 O23        87.8644   65.5883   31.6330 S1         2 LUT     -0.528210
    163 C24        85.7258   66.8542   32.3819 W6         2 LUT     -0.258361
    164 C25        84.5949   66.9570   33.1862 Z5         2 LUT      0.133546
    165 C26        84.5833   66.1389   34.5365 W8         2 LUT     -0.147008
    166 C27        83.7728   66.8923   35.6351 Z7         2 LUT      0.023843
    167 C28        82.5604   66.5522   36.0606 Z8         2 LUT     -0.216987
    168 C29        81.9454   67.0563   37.2713 Z9         2 LUT      0.206524
    169 C30        80.8411   66.3033   37.5638 Y1         2 LUT     -0.215556
    170 C31        80.0572   66.3886   38.7778 Y2         2 LUT      0.025142
    171 C32        78.9799   65.5938   39.0744 Y3         2 LUT     -0.212209
    172 C33        78.1303   65.5115   40.2779 Y4         2 LUT      0.240937
    173 C34        76.8789   64.8968   40.2133 Y5         2 LUT     -0.218862
    174 C35        75.9133   64.7939   41.2194 Y6         2 LUT     -0.023547
    175 C36        86.8345   66.6340   35.7231 Y7         2 LUT     -0.393485
    176 C37        85.8132   64.3745   36.0656 Y7         2 LUT     -0.393485
    177 C38        83.3131   67.5944   32.6697 Y9         2 LUT     -0.387526
    178 C39        82.6145   68.1097   38.2154 W1         2 LUT     -0.322618
    179 C40        78.6876   66.1825   41.5350 W2         2 LUT     -0.358472
    180 H403       78.3193   65.8213   42.4741 R7         2 LUT      0.097720
    181 H402       79.7878   65.9128   41.6520 R7         2 LUT      0.097720
    182 H401       78.6479   67.2868   41.5906 R7         2 LUT      0.097720
    183 H393       83.6178   67.7518   38.3829 R4         2 LUT      0.082505
    184 H392       82.6667   69.0525   37.7260 R4         2 LUT      0.082505
    185 H391       82.0480   68.2421   39.1737 R4         2 LUT      0.082505
    186 H383       83.4631   68.0611   31.7250 R1         2 LUT      0.104030
    187 H382       82.6677   66.7671   32.6349 R1         2 LUT      0.104030
    188 H381       82.8004   68.1416   33.4251 R1         2 LUT      0.104030
    189 H373       85.2113   64.6579   36.9741 T4         2 LUT      0.089537
    190 H372       85.3341   63.5085   35.5774 T4         2 LUT      0.089537
    191 H371       86.7531   63.8704   36.4924 T4         2 LUT      0.089537
    192 H363       87.8730   66.3509   35.8672 T4         2 LUT      0.089537
    193 H362       86.7656   67.4707   35.1067 T4         2 LUT      0.089537
    194 H361       86.5618   66.8786   36.7587 T4         2 LUT      0.089537
    195 H222       87.6763   64.8531   34.1099 U2         2 LUT      0.127376
    196 H221       86.3273   64.1814   33.2277 U2         2 LUT      0.127376
    197 H203       72.5169   61.3237   40.6125 R7         2 LUT      0.087068
    198 H202       71.2839   62.3207   40.6330 R7         2 LUT      0.087068
    199 H201       72.6741   62.8718   39.8073 R7         2 LUT      0.087068
    200 H193       68.9360   59.4906   45.8452 R4         2 LUT      0.089716
    201 H192       67.6736   60.4190   45.2041 R4         2 LUT      0.089716
    202 H191       69.1350   60.0079   44.2191 R4         2 LUT      0.089716
    203 H183       66.8117   64.6601   47.8573 R1         2 LUT      0.094572
    204 H182       66.7332   63.2019   46.9614 R1         2 LUT      0.094572
    205 H181       65.2903   63.6680   47.9265 R1         2 LUT      0.094572
    206 H173       69.1071   61.5872   52.4903 T4         2 LUT      0.093752
    207 H172       69.9786   62.1125   50.9712 T4         2 LUT      0.093752
    208 H171       68.5040   62.9250   51.5776 T4         2 LUT      0.093752
    209 H163       69.1365   59.3528   51.2222 T4         2 LUT      0.093752
    210 H162       68.4866   59.1589   49.5196 T4         2 LUT      0.093752
    211 H161       69.9734   60.1516   49.8822 T4         2 LUT      0.093752
    212 HO3        65.3276   62.1006   53.3282 Q1         2 LUT      0.300121
    213 H8         69.3122   63.1363   47.2283 U7         2 LUT      0.080784
    214 H7         68.2070   60.3619   47.7383 U6         2 LUT      0.042190
    215 H42        65.0488   63.4099   50.0445 U5         2 LUT      0.145166
    216 H41        66.2226   64.1408   50.9052 U5         2 LUT      0.145166
    217 H35        76.0783   65.3112   42.1370 T3         2 LUT      0.077919
    218 H34        76.6354   64.3729   39.2591 T2         2 LUT      0.073626
    219 H32        78.7252   64.7804   38.3820 T1         2 LUT      0.092510
    220 H31        80.3902   67.1294   39.5200 U9         2 LUT      0.070048
    221 H30        80.4092   65.5504   36.8323 U8         2 LUT      0.085442
    222 H3         64.8482   61.7206   51.2304 U3         2 LUT     -0.031596
    223 H28        82.0262   65.8060   35.4834 U7         2 LUT      0.084728
    224 H27        84.4042   67.6747   36.1588 U6         2 LUT      0.087291
    225 H26        83.9515   65.3118   34.3893 Q6         2 LUT      0.075325
    226 H24        85.5949   67.1702   31.3418 Q5         2 LUT      0.094482
    227 H23        87.5593   66.9162   33.2634 U3         2 LUT     -0.024869
    228 H22        66.3626   60.2324   50.4643 U2         2 LUT      0.127376
    229 H21        67.0519   60.4104   52.1617 U2         2 LUT      0.127376
    230 H15        74.7028   63.3504   40.0776 T3         2 LUT      0.093200
    231 H14        73.9902   64.4533   42.9465 T2         2 LUT      0.068865
    232 H12        72.2317   63.6805   43.9080 T1         2 LUT      0.095507
    233 H11        70.5499   61.3231   42.9137 U9         2 LUT      0.068930
    234 H10        70.7495   63.1673   45.4445 U8         2 LUT      0.083911
    235 H1         87.3331   65.2290   30.9255 Q1         2 LUT      0.297311
@<TRIPOS>BOND
    1     6     1 1
    2     7     2 1
    3     8     3 1
    4     9     4 1
    5    11     4 1
    6    12     6 1
    7    13     9 1
    8    16     9 1
    9    25     5 1
   10    25    16 1
   11    26    10 1
   12    26    17 1
   13    27    18 1
   14    28    14 1
   15    28    19 1
   16    29    12 1
   17    30    13 1
   18    31    24 1
   19    32     1 1
   20    32    25 1
   21    33    21 1
   22    33    26 1
   23    34    22 1
   24    34    27 1
   25    35    23 1
   26    35    28 1
   27    36    12 1
   28    36    24 1
   29    37    13 1
   30    37    15 1
   31    38    31 1
   32    39    20 1
   33    39    32 1
   34    40     2 1
   35    40    33 1
   36    41     3 1
   37    41    34 1
   38    42     4 1
   39    42    35 1
   40    43    38 1
   41    44     5 1
   42    44    17 1
   43    44    39 1
   44    45    10 1
   45    45    18 1
   46    45    40 1
   47    46    19 1
   48    46    41 1
   49    47    14 1
   50    47    16 1
   51    47    42 1
   52    48    38 1
   53    49    48 1
   54    50    49 1
   55    51    50 1
   56    52    51 1
   57    53    51 1
   58    54    53 1
   59    55    54 1
   60    56    55 1
   61    57    56 1
   62    58    56 1
   63    59    58 1
   64    60    59 1
   65    61    60 1
   66    62    61 1
   67    63    61 1
   68    64    27 1
   69    64    46 1
   70    65     5 1
   71    65    10 1
   72    65    64 1
   73    65    14 1
   74    66    23 1
   75    67    23 1
   76    68    23 1
   77    69    22 1
   78    70    22 1
   79    71    22 1
   80    72    21 1
   81    73    21 1
   82    74    21 1
   83    75    20 1
   84    76    20 1
   85    77    20 1
   86    78    15 1
   87    79    15 1
   88    80    15 1
   89    81     8 1
   90    82     8 1
   91    83     8 1
   92    84     7 1
   93    85     7 1
   94    86     6 1
   95    87     6 1
   96    88     3 1
   97    89     3 1
   98    90     1 1
   99    91     1 1
  100    92    63 1
  101    93    63 1
  102    94    63 1
  103    95    62 1
  104    96    62 1
  105    97    62 1
  106    98    60 1
  107    99    60 1
  108   100    59 1
  109   101    59 1
  110   102    58 1
  111   103    58 1
  112   104    57 1
  113   105    57 1
  114   106    57 1
  115   107    55 1
  116   108    55 1
  117   109    54 1
  118   110    54 1
  119   111    53 1
  120   112    53 1
  121   113    19 1
  122   114    18 1
  123   115    17 1
  124   116     9 1
  125   117     2 1
  126   118    52 1
  127   119    52 1
  128   120    52 1
  129   121    51 1
  130   122    50 1
  131   123    50 1
  132   124    49 1
  133   125    49 1
  134   126    48 1
  135   127    48 1
  136   128    43 1
  137   129    43 1
  138   130    43 1
  139   131    39 1
  140   132    32 1
  141   133    31 1
  142   134    61 1
  143   135    56 1
  144   136    24 1
  145   137    24 1
  146   139   138 1
  147   140   139 1
  148   141   140 1
  149   142   140 1
  150   143   142 1
  151   144   138 1
  152   144   143 1
  153   145   144 1
  154   146   145 1
  155   147   146 1
  156   148   147 1
  157   149   148 1
  158   150   149 1
  159   151   150 1
  160   152   151 1
  161   153   152 1
  162   154   138 1
  163   155   138 1
  164   156   143 1
  165   157   147 1
  166   158   151 1
  167   160   159 1
  168   161   160 1
  169   162   161 1
  170   163   161 1
  171   164   163 1
  172   165   159 1
  173   165   164 1
  174   166   165 1
  175   167   166 1
  176   168   167 1
  177   169   168 1
  178   170   169 1
  179   171   170 1
  180   172   171 1
  181   173   172 1
  182   174   153 1
  183   174   173 1
  184   175   159 1
  185   176   159 1
  186   177   164 1
  187   178   168 1
  188   179   172 1
  189   180   179 1
  190   181   179 1
  191   182   179 1
  192   183   178 1
  193   184   178 1
  194   185   178 1
  195   186   177 1
  196   187   177 1
  197   188   177 1
  198   189   176 1
  199   190   176 1
  200   191   176 1
  201   192   175 1
  202   193   175 1
  203   194   175 1
  204   195   160 1
  205   196   160 1
  206   197   158 1
  207   198   158 1
  208   199   158 1
  209   200   157 1
  210   201   157 1
  211   202   157 1
  212   203   156 1
  213   204   156 1
  214   205   156 1
  215   206   155 1
  216   207   155 1
  217   208   155 1
  218   209   154 1
  219   210   154 1
  220   211   154 1
  221   212   141 1
  222   213   146 1
  223   214   145 1
  224   215   142 1
  225   216   142 1
  226   217   174 1
  227   218   173 1
  228   219   171 1
  229   220   170 1
  230   221   169 1
  231   222   140 1
  232   223   167 1
  233   224   166 1
  234   225   165 1
  235   226   163 1
  236   227   161 1
  237   228   139 1
  238   229   139 1
  239   230   153 1
  240   231   152 1
  241   232   150 1
  242   233   149 1
  243   234   148 1
  244   235   162 1
  245   65    153 1
  246   65    174 1
@<TRIPOS>SUBSTRUCTURE
      1 CLA               1 ****               0 ****  **** 
      2 LUT             138 ****               0 ****  **** 
