@<TRIPOS>MOLECULE
Cpptraj generated mol2 file.
  235   246     2     0     0
SMALL
USER_CHARGES


@<TRIPOS>ATOM
      1 CAA        78.4741   57.6649   35.3540 a2         1 CLA     -0.055900
      2 CAB        77.7558   61.0831   44.3216 c8         1 CLA     -0.148500
      3 CAC        71.1098   56.7354   43.4101 a2         1 CLA     -0.012600
      4 CAD        74.6514   54.8046   36.2189 ck         1 CLA      0.398800
      5 NA         77.3796   57.9552   38.5991 ns         1 CLA     -0.225500
      6 CBA        79.6541   57.7675   34.4367 a2         1 CLA     -0.135000
      7 CBB        78.8762   61.3973   44.9867 c0         1 CLA     -0.395200
      8 CBC        71.3298   55.2437   43.5187 a3         1 CLA     -0.037700
      9 CBD        76.0784   55.5092   35.9387 a1         1 CLA     -0.053900
     10 NB         76.9799   59.3060   41.1974 nm         1 CLA     -0.295700
     11 OBD        74.1373   53.9162   35.6085 o2         1 CLA     -0.494600
     12 CGA        80.4404   56.4432   34.1800 c4         1 CLA      0.827000
     13 CGD        77.1691   54.4733   35.7101 c4         1 CLA      0.655300
     14 ND         74.5501   57.0159   38.9301 nm         1 CLA     -0.291600
     15 CED        78.0489   52.3179   36.2588 a3         1 CLA      0.005400
     16 CHA        76.2309   56.4307   37.1631 cs         1 CLA     -0.123800
     17 CHB        78.9909   59.2769   39.7650 aa         1 CLA     -0.291900
     18 CHC        75.5774   59.2289   43.2442 aa         1 CLA     -0.090400
     19 CHD        72.6642   56.5767   40.4750 aa         1 CLA     -0.052000
     20 CMA        80.8847   57.2858   38.2528 a3         1 CLA     -0.230700
     21 CMB        79.9534   61.4081   41.8782 a3         1 CLA     -0.180800
     22 CMC        73.2774   58.6718   45.0534 a3         1 CLA     -0.134000
     23 CMD        71.9623   54.3225   38.4636 a3         1 CLA     -0.141100
     24 C1         82.5573   55.3006   34.8295 a2         1 CLA      0.023000
     25 C1A        77.3803   57.2063   37.5119 ac         1 CLA     -0.015100
     26 C1B        78.2794   59.7102   40.9173 cr         1 CLA      0.054700
     27 C1C        74.4086   58.5559   42.8497 cn         1 CLA     -0.005600
     28 C1D        73.3513   56.3803   39.2736 ap         1 CLA     -0.047300
     29 O1A        80.2309   55.6299   33.2747 o2         1 CLA     -0.610800
     30 O1D        77.9989   54.5993   34.8053 o2         1 CLA     -0.558200
     31 C2         81.9159   54.2028   35.6421 c8         1 CLA     -0.325100
     32 C2A        78.7480   57.2035   36.7944 a1         1 CLA      0.098600
     33 C2B        78.7653   60.4915   42.0063 cb         1 CLA      0.088500
     34 C2C        73.3049   58.1769   43.7351 cb         1 CLA      0.053700
     35 C2D        73.0696   55.3746   38.2913 cb         1 CLA      0.058900
     36 O2A        81.5924   56.4558   34.9350 o1         1 CLA     -0.437200
     37 O2D        77.1460   53.4152   36.6293 o1         1 CLA     -0.357600
     38 C3         82.5639   53.4266   36.5061 c5         1 CLA      0.031200
     39 C3A        79.6755   58.0930   37.6574 a1         1 CLA      0.166800
     40 C3B        77.7726   60.4654   43.0501 cb         1 CLA      0.035000
     41 C3C        72.4227   57.3920   42.8991 cb         1 CLA     -0.089900
     42 C3D        74.1081   55.4151   37.3840 cb         1 CLA     -0.035900
     43 C4         82.9370   51.9787   36.3342 a3         1 CLA     -0.053300
     44 C4A        78.6157   58.4840   38.7338 ac         1 CLA      0.001800
     45 C4B        76.7151   59.6012   42.5504 cn         1 CLA     -0.020900
     46 C4C        73.0766   57.3573   41.6246 cr         1 CLA     -0.044400
     47 C4D        75.0185   56.3941   37.8726 c6         1 CLA     -0.046000
     48 C5         82.7452   53.9725   37.9469 a2         1 CLA     -0.070400
     49 C6         83.9943   54.9012   38.1471 a2         1 CLA      0.043900
     50 C7         84.0559   55.3826   39.5855 a2         1 CLA     -0.150000
     51 C8         85.1761   56.3742   39.7685 a1         1 CLA      0.064200
     52 C9         86.5382   55.6778   39.4055 a3         1 CLA     -0.259300
     53 C10        85.2641   57.0729   41.1574 a2         1 CLA     -0.071900
     54 C11        83.9816   57.8537   41.5700 a2         1 CLA      0.014500
     55 C12        84.2344   58.8924   42.8034 a2         1 CLA     -0.112100
     56 C13        84.9259   58.2563   43.9882 a1         1 CLA      0.089200
     57 C14        84.4106   56.9106   44.5416 a3         1 CLA     -0.239100
     58 C15        85.2186   59.3242   45.0970 a2         1 CLA     -0.102200
     59 C16        84.0198   59.9257   45.8801 a2         1 CLA      0.023900
     60 C17        84.5756   60.9479   46.9803 a2         1 CLA     -0.105700
     61 C18        83.5232   61.9430   47.5062 a1         1 CLA      0.206800
     62 C19        82.3310   61.2426   48.2262 a3         1 CLA     -0.280100
     63 C20        84.2244   63.0951   48.4587 a3         1 CLA     -0.280100
     64 NC         74.2533   58.1071   41.6043 nx         1 CLA     -0.309200
     65 MG         75.6967   58.2535   40.0195 mg         1 CLA      0.895000
     66 HMD3       72.1300   53.7288   39.3912 dc         1 CLA      0.064300
     67 HMD2       71.0648   54.9208   38.5597 dc         1 CLA      0.064300
     68 HMD1       72.0134   53.6356   37.5986 dc         1 CLA      0.064300
     69 HMC3       72.3997   58.1971   45.4912 dc         1 CLA      0.052100
     70 HMC2       74.1112   58.2929   45.6625 dc         1 CLA      0.052100
     71 HMC1       73.2056   59.7462   44.9734 dc         1 CLA      0.052100
     72 HMB3       80.8166   60.9755   42.3957 dc         1 CLA      0.063600
     73 HMB2       79.9927   61.6990   40.7438 dc         1 CLA      0.063600
     74 HMB1       79.7771   62.3139   42.3961 dc         1 CLA      0.063600
     75 HMA3       81.4185   57.9286   38.9189 dc         1 CLA      0.058300
     76 HMA2       80.5036   56.4250   38.8101 dc         1 CLA      0.058300
     77 HMA1       81.4552   56.8805   37.4908 dc         1 CLA      0.058300
     78 HED3       78.1346   51.5458   37.0262 dc         1 CLA      0.079300
     79 HED2       77.6986   51.7648   35.3418 dc         1 CLA      0.079300
     80 HED1       79.0889   52.7115   36.0852 dc         1 CLA      0.079300
     81 HBC3       71.3757   54.6750   42.5880 dc         1 CLA      0.016300
     82 HBC2       72.1881   55.0721   44.1766 dc         1 CLA      0.016300
     83 HBC1       70.3659   55.0410   43.9305 dc         1 CLA      0.016300
     84 HBB2       78.9640   61.8219   46.0203 da         1 CLA      0.183000
     85 HBB1       79.8410   61.2164   44.5100 da         1 CLA      0.183000
     86 HBA2       79.2794   58.0972   33.4639 dc         1 CLA      0.029400
     87 HBA1       80.4205   58.5437   34.7539 dc         1 CLA      0.029400
     88 HAC2       70.8822   57.1857   44.3758 dc         1 CLA      0.029300
     89 HAC1       70.3105   56.9051   42.6907 dc         1 CLA      0.029300
     90 HAA2       77.8432   56.9401   34.9380 dc         1 CLA      0.028700
     91 HAA1       77.8325   58.5817   35.3079 dc         1 CLA      0.028700
     92 H203       83.6127   63.9004   48.6940 dc         1 CLA      0.065600
     93 H202       84.4538   62.5084   49.3888 dc         1 CLA      0.065600
     94 H201       85.1712   63.2867   47.8881 dc         1 CLA      0.065600
     95 H193       82.6076   60.8227   49.2026 dc         1 CLA      0.065600
     96 H192       81.4833   61.9642   48.4547 dc         1 CLA      0.065600
     97 H191       81.8736   60.4000   47.5881 dc         1 CLA      0.065600
     98 H172       84.9896   60.3212   47.7907 dc         1 CLA      0.027600
     99 H171       85.4215   61.3840   46.4252 dc         1 CLA      0.027600
    100 H162       83.4124   60.4723   45.1469 dc         1 CLA      0.002900
    101 H161       83.3519   59.1473   46.2759 dc         1 CLA      0.002900
    102 H152       85.9519   58.9118   45.8016 dc         1 CLA      0.029100
    103 H151       85.6448   60.0914   44.5149 dc         1 CLA      0.029100
    104 H143       83.3702   56.8408   44.6246 dc         1 CLA      0.063600
    105 H142       84.7800   56.0786   43.9557 dc         1 CLA      0.063600
    106 H141       84.7625   56.7606   45.5889 dc         1 CLA      0.063600
    107 H122       84.8165   59.7273   42.4200 dc         1 CLA      0.032500
    108 H121       83.2360   59.2589   43.1473 dc         1 CLA      0.032500
    109 H112       83.5321   58.4036   40.7686 dc         1 CLA      0.006600
    110 H111       83.2743   57.0158   41.7751 dc         1 CLA      0.006600
    111 H102       85.4502   56.2070   41.7841 dc         1 CLA      0.024100
    112 H101       86.2186   57.6735   40.9978 dc         1 CLA      0.024100
    113 HHD        71.9190   55.7780   40.6226 da         1 CLA      0.174300
    114 HHC        75.6312   59.4778   44.2365 da         1 CLA      0.136800
    115 HHB        79.9837   59.5793   39.8948 da         1 CLA      0.138300
    116 HBD        75.7977   56.0311   35.0323 dc         1 CLA      0.107700
    117 HAB        76.8333   61.2509   44.7573 da         1 CLA      0.155200
    118 H93        86.5772   55.0198   38.5117 dc         1 CLA      0.069500
    119 H92        87.2716   56.4576   39.3226 dc         1 CLA      0.069500
    120 H91        86.8007   55.0587   40.2342 dc         1 CLA      0.069500
    121 H8         84.9203   57.1500   39.0963 dc         1 CLA      0.029300
    122 H72        83.1462   55.9506   39.9352 dc         1 CLA      0.044400
    123 H71        84.1123   54.5263   40.3008 dc         1 CLA      0.044400
    124 H62        84.7617   54.1474   38.0210 dc         1 CLA      0.015600
    125 H61        83.9019   55.6221   37.3688 dc         1 CLA      0.015600
    126 H52        81.7830   54.4441   38.2350 dc         1 CLA      0.033200
    127 H51        82.7394   53.0637   38.5692 dc         1 CLA      0.033200
    128 H43        82.9228   51.6907   35.2803 dc         1 CLA      0.037000
    129 H42        83.8643   51.6581   36.8033 dc         1 CLA      0.037000
    130 H41        82.1121   51.4198   36.8902 dc         1 CLA      0.037000
    131 H3A        79.9671   58.9698   37.1469 dc         1 CLA      0.041100
    132 H2A        78.9625   56.1330   36.6987 dc         1 CLA      0.083100
    133 H2         80.8245   54.0218   35.4501 da         1 CLA      0.180900
    134 H18        83.1938   62.4750   46.6620 dc         1 CLA     -0.003900
    135 H13        85.8694   57.9304   43.6367 dc         1 CLA      0.019700
    136 H12        82.7238   54.9950   33.7936 dc         1 CLA      0.120400
    137 H11        83.6349   55.5185   35.1987 dc         1 CLA      0.120400
    138 C1         68.4518   60.4659   50.3535 Z1         2 LUT      0.509236
    139 C2         67.0964   60.4414   51.0210 Z2         2 LUT     -0.434695
    140 C3         66.3189   61.7967   51.0440 Z3         2 LUT      0.437453
    141 O3         65.7838   61.9978   52.3689 S1         2 LUT     -0.547129
    142 C4         67.1291   62.9729   50.4881 Z4         2 LUT     -0.468603
    143 C5         67.7496   62.6301   49.1514 Z5         2 LUT      0.279246
    144 C6         68.3891   61.4263   49.1099 Z6         2 LUT     -0.305473
    145 C7         68.6962   60.6777   47.8150 Z7         2 LUT      0.069402
    146 C8         69.6090   61.2109   47.0122 Z8         2 LUT     -0.191631
    147 C9         70.1046   60.8716   45.6864 Z9         2 LUT      0.196698
    148 C10        70.9524   61.6893   44.9814 Y1         2 LUT     -0.208611
    149 C11        71.5385   61.5713   43.6459 Y2         2 LUT      0.030784
    150 C12        72.7098   62.3298   43.3089 Y3         2 LUT     -0.220316
    151 C13        73.5589   62.3126   42.1519 Y4         2 LUT      0.215937
    152 C14        74.7100   63.0379   42.1794 Y5         2 LUT     -0.185793
    153 C15        75.8635   62.9996   41.3691 Y6         2 LUT     -0.057835
    154 C16        68.8490   58.9321   50.3311 Y7         2 LUT     -0.405615
    155 C17        69.3626   61.0086   51.4335 Y7         2 LUT     -0.405615
    156 C18        67.2014   63.5144   48.0400 Y9         2 LUT     -0.369639
    157 C19        69.5976   59.5605   45.1330 W1         2 LUT     -0.333362
    158 C20        73.1092   61.4768   40.9505 W2         2 LUT     -0.323439
    159 C21        87.4829   64.7335   35.7826 Z1         2 LUT      0.406104
    160 C22        88.3531   64.2767   34.5906 Z2         2 LUT     -0.404965
    161 C23        88.3598   65.4035   33.3953 Z3         2 LUT      0.391255
    162 O23        88.9983   64.8739   32.2269 S1         2 LUT     -0.528210
    163 C24        87.0087   66.0250   33.2306 W6         2 LUT     -0.258361
    164 C25        85.9039   65.9912   34.0570 Z5         2 LUT      0.133546
    165 C26        86.0132   65.2236   35.3906 W8         2 LUT     -0.147008
    166 C27        85.1896   65.9097   36.5188 Z7         2 LUT      0.023843
    167 C28        83.9909   65.4108   36.8629 Z8         2 LUT     -0.216987
    168 C29        83.2796   65.8241   38.1571 Z9         2 LUT      0.206524
    169 C30        82.0833   65.1250   38.4301 Y1         2 LUT     -0.215556
    170 C31        81.2486   65.1690   39.6030 Y2         2 LUT      0.025142
    171 C32        80.1347   64.5487   39.7242 Y3         2 LUT     -0.212209
    172 C33        79.1455   64.6304   40.7939 Y4         2 LUT      0.240937
    173 C34        78.0268   63.8929   40.7125 Y5         2 LUT     -0.218862
    174 C35        76.8818   63.8059   41.6308 Y6         2 LUT     -0.023547
    175 C36        88.3918   65.7315   36.5833 Y7         2 LUT     -0.393485
    176 C37        87.2116   63.4299   36.6375 Y7         2 LUT     -0.393485
    177 C38        84.6107   66.6870   33.6723 Y9         2 LUT     -0.387526
    178 C39        83.9397   66.7981   39.0741 W1         2 LUT     -0.322618
    179 C40        79.5054   65.6223   41.8663 W2         2 LUT     -0.358472
    180 H403       78.6445   65.9366   42.4365 R7         2 LUT      0.097720
    181 H402       80.3160   65.1776   42.6015 R7         2 LUT      0.097720
    182 H401       79.9222   66.4776   41.4080 R7         2 LUT      0.097720
    183 H393       83.2523   67.0691   39.8768 R4         2 LUT      0.082505
    184 H392       84.8556   66.5562   39.6403 R4         2 LUT      0.082505
    185 H391       84.0698   67.8135   38.6845 R4         2 LUT      0.082505
    186 H383       84.5589   67.4999   34.3404 R1         2 LUT      0.104030
    187 H382       84.6370   66.8858   32.5805 R1         2 LUT      0.104030
    188 H381       83.8014   65.9414   33.7413 R1         2 LUT      0.104030
    189 H373       86.6745   62.6559   36.1417 T4         2 LUT      0.089537
    190 H372       88.1422   63.1192   37.0916 T4         2 LUT      0.089537
    191 H371       86.5433   63.5835   37.5023 T4         2 LUT      0.089537
    192 H363       89.2942   65.2411   37.0168 T4         2 LUT      0.089537
    193 H362       88.7898   66.5682   35.9957 T4         2 LUT      0.089537
    194 H361       87.7826   66.2480   37.3524 T4         2 LUT      0.089537
    195 H222       89.3284   63.9696   34.7885 U2         2 LUT      0.127376
    196 H221       87.7711   63.4217   34.1824 U2         2 LUT      0.127376
    197 H203       73.6689   60.5979   40.8434 R7         2 LUT      0.087068
    198 H202       72.0319   61.2624   40.9075 R7         2 LUT      0.087068
    199 H201       73.2308   62.1171   40.0772 R7         2 LUT      0.087068
    200 H193       68.5491   59.6288   44.9967 R4         2 LUT      0.089716
    201 H192       69.9902   59.3041   44.2222 R4         2 LUT      0.089716
    202 H191       69.7092   58.7359   45.7814 R4         2 LUT      0.089716
    203 H183       67.9960   63.5635   47.2811 R1         2 LUT      0.094572
    204 H182       66.2291   63.2265   47.6708 R1         2 LUT      0.094572
    205 H181       67.2407   64.5514   48.4563 R1         2 LUT      0.094572
    206 H173       69.6277   60.2287   52.1764 T4         2 LUT      0.093752
    207 H172       70.2711   61.4177   50.9460 T4         2 LUT      0.093752
    208 H171       69.0053   61.8466   52.0946 T4         2 LUT      0.093752
    209 H163       68.1693   58.4431   49.6848 T4         2 LUT      0.093752
    210 H162       69.8627   58.8485   49.9659 T4         2 LUT      0.093752
    211 H161       68.7081   58.3885   51.2985 T4         2 LUT      0.093752
    212 HO3        66.4875   61.9713   53.1163 Q1         2 LUT      0.300121
    213 H8         69.9834   62.1982   47.3565 U7         2 LUT      0.080784
    214 H7         68.3199   59.6873   47.5256 U6         2 LUT      0.042190
    215 H42        66.4148   63.7522   50.3087 U5         2 LUT      0.145166
    216 H41        67.9777   63.3685   51.1579 U5         2 LUT      0.145166
    217 H35        76.8041   64.4979   42.4538 T3         2 LUT      0.077919
    218 H34        77.9376   63.3200   39.7352 T2         2 LUT      0.073626
    219 H32        79.7712   63.8188   38.9759 T1         2 LUT      0.092510
    220 H31        81.5952   65.8691   40.1870 U9         2 LUT      0.070048
    221 H30        81.7413   64.4742   37.6831 U8         2 LUT      0.085442
    222 H3         65.5480   61.6812   50.3148 U3         2 LUT     -0.031596
    223 H28        83.6925   64.5114   36.4012 U7         2 LUT      0.084728
    224 H27        85.6545   66.7850   36.9631 U6         2 LUT      0.087291
    225 H26        85.3639   64.3577   35.1492 Q6         2 LUT      0.075325
    226 H24        86.9697   66.4520   32.1699 Q5         2 LUT      0.094482
    227 H23        89.0447   66.0789   33.9032 U3         2 LUT     -0.024869
    228 H22        66.4813   59.8639   50.3963 U2         2 LUT      0.127376
    229 H21        67.0311   59.9361   51.9696 U2         2 LUT      0.127376
    230 H15        75.8152   62.3679   40.4831 T3         2 LUT      0.093200
    231 H14        74.7454   63.6808   43.0411 T2         2 LUT      0.068865
    232 H12        73.1746   62.9591   44.0748 T1         2 LUT      0.095507
    233 H11        71.1334   60.8035   42.9522 U9         2 LUT      0.068930
    234 H10        71.2479   62.6212   45.5678 U8         2 LUT      0.083911
    235 H1         88.4441   64.2759   31.7213 Q1         2 LUT      0.297311
@<TRIPOS>BOND
    1     6     1 1
    2     7     2 1
    3     8     3 1
    4     9     4 1
    5    11     4 1
    6    12     6 1
    7    13     9 1
    8    16     9 1
    9    25     5 1
   10    25    16 1
   11    26    10 1
   12    26    17 1
   13    27    18 1
   14    28    14 1
   15    28    19 1
   16    29    12 1
   17    30    13 1
   18    31    24 1
   19    32     1 1
   20    32    25 1
   21    33    21 1
   22    33    26 1
   23    34    22 1
   24    34    27 1
   25    35    23 1
   26    35    28 1
   27    36    12 1
   28    36    24 1
   29    37    13 1
   30    37    15 1
   31    38    31 1
   32    39    20 1
   33    39    32 1
   34    40     2 1
   35    40    33 1
   36    41     3 1
   37    41    34 1
   38    42     4 1
   39    42    35 1
   40    43    38 1
   41    44     5 1
   42    44    17 1
   43    44    39 1
   44    45    10 1
   45    45    18 1
   46    45    40 1
   47    46    19 1
   48    46    41 1
   49    47    14 1
   50    47    16 1
   51    47    42 1
   52    48    38 1
   53    49    48 1
   54    50    49 1
   55    51    50 1
   56    52    51 1
   57    53    51 1
   58    54    53 1
   59    55    54 1
   60    56    55 1
   61    57    56 1
   62    58    56 1
   63    59    58 1
   64    60    59 1
   65    61    60 1
   66    62    61 1
   67    63    61 1
   68    64    27 1
   69    64    46 1
   70    65     5 1
   71    65    10 1
   72    65    64 1
   73    65    14 1
   74    66    23 1
   75    67    23 1
   76    68    23 1
   77    69    22 1
   78    70    22 1
   79    71    22 1
   80    72    21 1
   81    73    21 1
   82    74    21 1
   83    75    20 1
   84    76    20 1
   85    77    20 1
   86    78    15 1
   87    79    15 1
   88    80    15 1
   89    81     8 1
   90    82     8 1
   91    83     8 1
   92    84     7 1
   93    85     7 1
   94    86     6 1
   95    87     6 1
   96    88     3 1
   97    89     3 1
   98    90     1 1
   99    91     1 1
  100    92    63 1
  101    93    63 1
  102    94    63 1
  103    95    62 1
  104    96    62 1
  105    97    62 1
  106    98    60 1
  107    99    60 1
  108   100    59 1
  109   101    59 1
  110   102    58 1
  111   103    58 1
  112   104    57 1
  113   105    57 1
  114   106    57 1
  115   107    55 1
  116   108    55 1
  117   109    54 1
  118   110    54 1
  119   111    53 1
  120   112    53 1
  121   113    19 1
  122   114    18 1
  123   115    17 1
  124   116     9 1
  125   117     2 1
  126   118    52 1
  127   119    52 1
  128   120    52 1
  129   121    51 1
  130   122    50 1
  131   123    50 1
  132   124    49 1
  133   125    49 1
  134   126    48 1
  135   127    48 1
  136   128    43 1
  137   129    43 1
  138   130    43 1
  139   131    39 1
  140   132    32 1
  141   133    31 1
  142   134    61 1
  143   135    56 1
  144   136    24 1
  145   137    24 1
  146   139   138 1
  147   140   139 1
  148   141   140 1
  149   142   140 1
  150   143   142 1
  151   144   138 1
  152   144   143 1
  153   145   144 1
  154   146   145 1
  155   147   146 1
  156   148   147 1
  157   149   148 1
  158   150   149 1
  159   151   150 1
  160   152   151 1
  161   153   152 1
  162   154   138 1
  163   155   138 1
  164   156   143 1
  165   157   147 1
  166   158   151 1
  167   160   159 1
  168   161   160 1
  169   162   161 1
  170   163   161 1
  171   164   163 1
  172   165   159 1
  173   165   164 1
  174   166   165 1
  175   167   166 1
  176   168   167 1
  177   169   168 1
  178   170   169 1
  179   171   170 1
  180   172   171 1
  181   173   172 1
  182   174   153 1
  183   174   173 1
  184   175   159 1
  185   176   159 1
  186   177   164 1
  187   178   168 1
  188   179   172 1
  189   180   179 1
  190   181   179 1
  191   182   179 1
  192   183   178 1
  193   184   178 1
  194   185   178 1
  195   186   177 1
  196   187   177 1
  197   188   177 1
  198   189   176 1
  199   190   176 1
  200   191   176 1
  201   192   175 1
  202   193   175 1
  203   194   175 1
  204   195   160 1
  205   196   160 1
  206   197   158 1
  207   198   158 1
  208   199   158 1
  209   200   157 1
  210   201   157 1
  211   202   157 1
  212   203   156 1
  213   204   156 1
  214   205   156 1
  215   206   155 1
  216   207   155 1
  217   208   155 1
  218   209   154 1
  219   210   154 1
  220   211   154 1
  221   212   141 1
  222   213   146 1
  223   214   145 1
  224   215   142 1
  225   216   142 1
  226   217   174 1
  227   218   173 1
  228   219   171 1
  229   220   170 1
  230   221   169 1
  231   222   140 1
  232   223   167 1
  233   224   166 1
  234   225   165 1
  235   226   163 1
  236   227   161 1
  237   228   139 1
  238   229   139 1
  239   230   153 1
  240   231   152 1
  241   232   150 1
  242   233   149 1
  243   234   148 1
  244   235   162 1
  245   65    153 1
  246   65    174 1
@<TRIPOS>SUBSTRUCTURE
      1 CLA               1 ****               0 ****  **** 
      2 LUT             138 ****               0 ****  **** 
