@<TRIPOS>MOLECULE
Cpptraj generated mol2 file.
  235   246     2     0     0
SMALL
USER_CHARGES


@<TRIPOS>ATOM
      1 CAA        77.8440   58.2512   34.6908 a2         1 CLA     -0.055900
      2 CAB        78.1005   62.6714   43.4457 c8         1 CLA     -0.148500
      3 CAC        71.0164   58.3304   43.4638 a2         1 CLA     -0.012600
      4 CAD        73.3287   55.9933   36.0863 ck         1 CLA      0.398800
      5 NA         76.7478   58.9358   37.9979 ns         1 CLA     -0.225500
      6 CBA        79.0259   57.9878   33.7449 a2         1 CLA     -0.135000
      7 CBB        77.1739   63.1025   44.3977 c0         1 CLA     -0.395200
      8 CBC        71.0972   56.8084   43.4800 a3         1 CLA     -0.037700
      9 CBD        74.8135   56.4676   35.7392 a1         1 CLA     -0.053900
     10 NB         76.6609   60.5709   40.6095 nm         1 CLA     -0.295700
     11 OBD        72.6224   55.2556   35.4180 o2         1 CLA     -0.494600
     12 CGA        79.4570   56.5588   33.6376 c4         1 CLA      0.827000
     13 CGD        75.7051   55.2723   35.6566 c4         1 CLA      0.655300
     14 ND         73.9318   58.1820   38.8258 nm         1 CLA     -0.291600
     15 CED        76.1436   53.0985   36.5566 a3         1 CLA      0.005400
     16 CHA        75.3299   57.4114   36.8387 cs         1 CLA     -0.123800
     17 CHB        78.6105   60.1384   39.0557 aa         1 CLA     -0.291900
     18 CHC        75.4664   60.8003   42.8109 aa         1 CLA     -0.090400
     19 CHD        72.0400   58.2823   40.4132 aa         1 CLA     -0.052000
     20 CMA        80.0423   57.7770   37.7589 a3         1 CLA     -0.230700
     21 CMB        80.0062   62.0902   41.0637 a3         1 CLA     -0.180800
     22 CMC        73.1555   60.1202   45.0251 a3         1 CLA     -0.134000
     23 CMD        70.6550   56.5008   38.1721 a3         1 CLA     -0.141100
     24 C1         80.1348   54.5648   34.9364 a2         1 CLA      0.023000
     25 C1A        76.5274   58.0826   36.9813 ac         1 CLA     -0.015100
     26 C1B        77.9894   60.7992   40.1776 cr         1 CLA      0.054700
     27 C1C        74.3190   60.0710   42.5986 cn         1 CLA     -0.005600
     28 C1D        72.6300   57.8244   39.2270 ap         1 CLA     -0.047300
     29 O1A        79.4446   55.9477   32.6047 o2         1 CLA     -0.610800
     30 O1D        76.5751   55.1059   34.8194 o2         1 CLA     -0.558200
     31 C2         80.9240   54.3443   36.2460 c8         1 CLA     -0.325100
     32 C2A        77.8714   57.8611   36.2021 a1         1 CLA      0.098600
     33 C2B        78.5922   61.6726   41.0799 cb         1 CLA      0.088500
     34 C2C        73.2682   59.7628   43.5632 cb         1 CLA      0.053700
     35 C2D        72.0626   56.9589   38.2074 cb         1 CLA      0.058900
     36 O2A        79.7802   55.9920   34.8314 o1         1 CLA     -0.437200
     37 O2D        75.3323   54.3750   36.5999 o1         1 CLA     -0.357600
     38 C3         81.8993   53.4885   36.5346 c5         1 CLA      0.031200
     39 C3A        78.9337   58.6611   37.0560 a1         1 CLA      0.166800
     40 C3B        77.7228   61.9733   42.1482 cb         1 CLA      0.035000
     41 C3C        72.2269   59.0502   42.8225 cb         1 CLA     -0.089900
     42 C3D        73.0575   56.6846   37.3158 cb         1 CLA     -0.035900
     43 C4         81.6461   52.2196   37.2341 a3         1 CLA     -0.053300
     44 C4A        78.0614   59.2379   38.1220 ac         1 CLA      0.001800
     45 C4B        76.5285   61.1031   41.8816 cn         1 CLA     -0.020900
     46 C4C        72.7352   58.9813   41.4672 cr         1 CLA     -0.044400
     47 C4D        74.1485   57.5378   37.6145 c6         1 CLA     -0.046000
     48 C5         83.2458   53.6759   35.8882 a2         1 CLA     -0.070400
     49 C6         83.9424   55.0433   36.0922 a2         1 CLA      0.043900
     50 C7         84.2662   55.2684   37.5739 a2         1 CLA     -0.150000
     51 C8         85.3463   56.3886   37.8126 a1         1 CLA      0.064200
     52 C9         86.8063   55.9182   37.6020 a3         1 CLA     -0.259300
     53 C10        85.2956   56.9647   39.3097 a2         1 CLA     -0.071900
     54 C11        84.0335   57.4550   39.9104 a2         1 CLA      0.014500
     55 C12        84.0393   58.3950   41.1678 a2         1 CLA     -0.112100
     56 C13        84.8532   57.7859   42.3839 a1         1 CLA      0.089200
     57 C14        84.0674   56.6928   43.1159 a3         1 CLA     -0.239100
     58 C15        85.1555   58.7761   43.4206 a2         1 CLA     -0.102200
     59 C16        83.8827   59.4443   44.1057 a2         1 CLA      0.023900
     60 C17        84.3867   60.6946   44.8969 a2         1 CLA     -0.105700
     61 C18        83.2668   61.4630   45.6507 a1         1 CLA      0.206800
     62 C19        83.8026   62.5809   46.5797 a3         1 CLA     -0.280100
     63 C20        82.2094   62.0322   44.6975 a3         1 CLA     -0.280100
     64 NC         74.0343   59.4868   41.3879 nx         1 CLA     -0.309200
     65 MG         75.2342   59.3889   39.5980 mg         1 CLA      0.895000
     66 HMD3       70.7100   55.3334   38.1878 dc         1 CLA      0.064300
     67 HMD2       70.0127   56.9237   38.9340 dc         1 CLA      0.064300
     68 HMD1       70.3050   56.7345   37.1190 dc         1 CLA      0.064300
     69 HMC3       72.1531   60.5124   45.2821 dc         1 CLA      0.052100
     70 HMC2       73.2779   59.1557   45.6575 dc         1 CLA      0.052100
     71 HMC1       73.9209   60.8226   45.4211 dc         1 CLA      0.052100
     72 HMB3       80.2917   62.3527   40.0172 dc         1 CLA      0.063600
     73 HMB2       80.1275   63.0087   41.6289 dc         1 CLA      0.063600
     74 HMB1       80.5481   61.1946   41.3869 dc         1 CLA      0.063600
     75 HMA3       79.5800   57.0806   38.4349 dc         1 CLA      0.058300
     76 HMA2       80.6397   57.3274   36.9269 dc         1 CLA      0.058300
     77 HMA1       80.6710   58.4218   38.4286 dc         1 CLA      0.058300
     78 HED3       75.7947   52.3782   37.3556 dc         1 CLA      0.079300
     79 HED2       75.9809   52.6511   35.5876 dc         1 CLA      0.079300
     80 HED1       77.2093   53.2749   36.8575 dc         1 CLA      0.079300
     81 HBC3       72.0211   56.4816   43.9748 dc         1 CLA      0.016300
     82 HBC2       70.2468   56.6017   44.1376 dc         1 CLA      0.016300
     83 HBC1       70.9042   56.3248   42.5695 dc         1 CLA      0.016300
     84 HBB2       77.5703   63.4079   45.3496 da         1 CLA      0.183000
     85 HBB1       76.0645   63.0881   44.3051 da         1 CLA      0.183000
     86 HBA2       78.6298   58.4021   32.8298 dc         1 CLA      0.029400
     87 HBA1       79.8357   58.6249   34.1014 dc         1 CLA      0.029400
     88 HAC2       70.9480   58.6734   44.4940 dc         1 CLA      0.029300
     89 HAC1       70.1155   58.4750   42.8573 dc         1 CLA      0.029300
     90 HAA2       77.0141   57.7931   34.2019 dc         1 CLA      0.028700
     91 HAA1       77.7571   59.3113   34.7269 dc         1 CLA      0.028700
     92 H203       82.7191   62.5785   43.9351 dc         1 CLA      0.065600
     93 H202       81.4157   61.3244   44.3172 dc         1 CLA      0.065600
     94 H201       81.6424   62.7529   45.3049 dc         1 CLA      0.065600
     95 H193       82.9704   63.2024   47.0080 dc         1 CLA      0.065600
     96 H192       84.3862   62.1195   47.3492 dc         1 CLA      0.065600
     97 H191       84.2992   63.2919   45.9509 dc         1 CLA      0.065600
     98 H172       84.9894   60.2923   45.7198 dc         1 CLA      0.027600
     99 H171       84.9757   61.3117   44.1756 dc         1 CLA      0.027600
    100 H162       83.0704   59.9069   43.4814 dc         1 CLA      0.002900
    101 H161       83.3439   58.6563   44.6733 dc         1 CLA      0.002900
    102 H152       85.7856   58.3534   44.1640 dc         1 CLA      0.029100
    103 H151       85.6797   59.6060   42.9086 dc         1 CLA      0.029100
    104 H143       83.0872   56.9879   43.3548 dc         1 CLA      0.063600
    105 H142       83.8171   55.8528   42.4863 dc         1 CLA      0.063600
    106 H141       84.4951   56.2014   43.9846 dc         1 CLA      0.063600
    107 H122       84.5387   59.3590   40.9643 dc         1 CLA      0.032500
    108 H121       82.9996   58.6505   41.4382 dc         1 CLA      0.032500
    109 H112       83.5597   57.9926   39.1458 dc         1 CLA      0.006600
    110 H111       83.3506   56.5774   40.0731 dc         1 CLA      0.006600
    111 H102       85.7122   56.1730   39.9869 dc         1 CLA      0.024100
    112 H101       85.9860   57.7990   39.2788 dc         1 CLA      0.024100
    113 HHD        71.1124   57.9023   40.7770 da         1 CLA      0.174300
    114 HHC        75.5259   61.1645   43.8567 da         1 CLA      0.136800
    115 HHB        79.6430   60.5228   39.0222 da         1 CLA      0.138300
    116 HBD        74.9138   57.0103   34.7926 dc         1 CLA      0.107700
    117 HAB        79.1551   62.8087   43.7229 da         1 CLA      0.155200
    118 H93        87.4850   56.7680   37.7119 dc         1 CLA      0.069500
    119 H92        86.9855   55.1304   38.2644 dc         1 CLA      0.069500
    120 H91        86.8884   55.8073   36.5334 dc         1 CLA      0.069500
    121 H8         85.1265   57.2792   37.2290 dc         1 CLA      0.029300
    122 H72        83.3936   55.7927   37.9749 dc         1 CLA      0.044400
    123 H71        84.5544   54.3268   38.0688 dc         1 CLA      0.044400
    124 H62        84.8495   54.8985   35.5035 dc         1 CLA      0.015600
    125 H61        83.4036   55.8427   35.6727 dc         1 CLA      0.015600
    126 H52        83.9019   52.8145   35.9729 dc         1 CLA      0.033200
    127 H51        82.9869   53.6440   34.8399 dc         1 CLA      0.033200
    128 H43        82.4800   51.9435   37.8706 dc         1 CLA      0.037000
    129 H42        80.7745   52.3720   37.8453 dc         1 CLA      0.037000
    130 H41        81.5204   51.3743   36.5091 dc         1 CLA      0.037000
    131 H3A        79.5485   59.4134   36.5554 dc         1 CLA      0.041100
    132 H2A        78.1714   56.7593   36.2210 dc         1 CLA      0.083100
    133 H2         80.8709   55.2555   36.8922 da         1 CLA      0.180900
    134 H18        82.8328   60.7136   46.2593 dc         1 CLA     -0.003900
    135 H13        85.8029   57.3885   42.0699 dc         1 CLA      0.019700
    136 H12        79.2316   54.0051   35.0463 dc         1 CLA      0.120400
    137 H11        80.7781   54.2360   34.2328 dc         1 CLA      0.120400
    138 C1         67.4784   61.4135   50.4824 Z1         2 LUT      0.509236
    139 C2         66.1719   61.2199   51.2173 Z2         2 LUT     -0.434695
    140 C3         65.4438   62.5859   51.6711 Z3         2 LUT      0.437453
    141 O3         65.8971   63.1989   52.8463 S1         2 LUT     -0.547129
    142 C4         65.5788   63.6998   50.6276 Z4         2 LUT     -0.468603
    143 C5         66.4040   63.4386   49.4185 Z5         2 LUT      0.279246
    144 C6         67.3198   62.4969   49.3534 Z6         2 LUT     -0.305473
    145 C7         67.8208   62.0769   48.0416 Z7         2 LUT      0.069402
    146 C8         68.7805   62.6570   47.3063 Z8         2 LUT     -0.191631
    147 C9         69.4427   62.1335   46.0939 Z9         2 LUT      0.196698
    148 C10        70.2287   62.9918   45.3874 Y1         2 LUT     -0.208611
    149 C11        71.0352   62.6521   44.2139 Y2         2 LUT      0.030784
    150 C12        72.0937   63.4195   43.8271 Y3         2 LUT     -0.220316
    151 C13        72.8412   63.4284   42.5468 Y4         2 LUT      0.215937
    152 C14        73.8870   64.3040   42.4404 Y5         2 LUT     -0.185793
    153 C15        74.9640   64.3181   41.4711 Y6         2 LUT     -0.057835
    154 C16        67.9415   59.9710   50.2210 Y7         2 LUT     -0.405615
    155 C17        68.5110   61.9753   51.5032 Y7         2 LUT     -0.405615
    156 C18        65.9392   64.4057   48.3446 Y9         2 LUT     -0.369639
    157 C19        69.2194   60.6702   45.8900 W1         2 LUT     -0.333362
    158 C20        71.9862   62.9758   41.3519 W2         2 LUT     -0.323439
    159 C21        86.3258   64.9217   34.6895 Z1         2 LUT      0.406104
    160 C22        86.8413   64.3948   33.3350 Z2         2 LUT     -0.404965
    161 C23        86.6141   65.2505   32.1202 Z3         2 LUT      0.391255
    162 O23        86.9392   64.2546   31.1567 S1         2 LUT     -0.528210
    163 C24        85.2326   65.9783   32.0915 W6         2 LUT     -0.258361
    164 C25        84.4063   65.9986   33.0760 Z5         2 LUT      0.133546
    165 C26        84.7966   65.3559   34.4752 W8         2 LUT     -0.147008
    166 C27        84.2140   66.0919   35.6977 Z7         2 LUT      0.023843
    167 C28        83.2047   65.6339   36.5029 Z8         2 LUT     -0.216987
    168 C29        82.5014   66.2691   37.6193 Z9         2 LUT      0.206524
    169 C30        81.3658   65.6466   38.0997 Y1         2 LUT     -0.215556
    170 C31        80.5765   65.9694   39.2455 Y2         2 LUT      0.025142
    171 C32        79.4089   65.3216   39.6505 Y3         2 LUT     -0.212209
    172 C33        78.4564   65.5941   40.7349 Y4         2 LUT      0.240937
    173 C34        77.3413   64.8026   40.7460 Y5         2 LUT     -0.218862
    174 C35        76.1748   64.9370   41.5841 Y6         2 LUT     -0.023547
    175 C36        87.3480   66.1409   35.0181 Y7         2 LUT     -0.393485
    176 C37        86.6136   63.7986   35.7663 Y7         2 LUT     -0.393485
    177 C38        83.1047   66.5868   32.9603 Y9         2 LUT     -0.387526
    178 C39        83.1620   67.5072   38.2230 W1         2 LUT     -0.322618
    179 C40        78.8708   66.7840   41.6575 W2         2 LUT     -0.358472
    180 H403       78.8961   67.7168   41.1602 R7         2 LUT      0.097720
    181 H402       78.2652   66.7497   42.5873 R7         2 LUT      0.097720
    182 H401       79.9155   66.8059   42.0600 R7         2 LUT      0.097720
    183 H393       83.0656   68.3714   37.5930 R4         2 LUT      0.082505
    184 H392       82.7864   67.7746   39.2304 R4         2 LUT      0.082505
    185 H391       84.2333   67.2646   38.2826 R4         2 LUT      0.082505
    186 H383       83.1893   67.6893   33.0647 R1         2 LUT      0.104030
    187 H382       82.7892   66.3600   31.9279 R1         2 LUT      0.104030
    188 H381       82.4614   66.2190   33.7006 R1         2 LUT      0.104030
    189 H373       86.3631   64.1239   36.7620 T4         2 LUT      0.089537
    190 H372       86.0544   62.9135   35.6545 T4         2 LUT      0.089537
    191 H371       87.7305   63.5494   35.8766 T4         2 LUT      0.089537
    192 H363       88.3707   65.9058   35.1888 T4         2 LUT      0.089537
    193 H362       87.2455   66.8702   34.2848 T4         2 LUT      0.089537
    194 H361       86.9123   66.6458   35.8516 T4         2 LUT      0.089537
    195 H222       87.9368   64.1696   33.4626 U2         2 LUT      0.127376
    196 H221       86.2784   63.4559   33.3326 U2         2 LUT      0.127376
    197 H203       72.5366   62.8530   40.4176 R7         2 LUT      0.087068
    198 H202       71.6178   61.9667   41.5873 R7         2 LUT      0.087068
    199 H201       71.2309   63.6787   41.0542 R7         2 LUT      0.087068
    200 H193       68.1420   60.5658   45.9003 R4         2 LUT      0.089716
    201 H192       69.5871   60.1735   45.0545 R4         2 LUT      0.089716
    202 H191       69.4124   60.0828   46.8302 R4         2 LUT      0.089716
    203 H183       66.1751   63.8968   47.3687 R1         2 LUT      0.094572
    204 H182       64.8916   64.6342   48.3009 R1         2 LUT      0.094572
    205 H181       66.4662   65.3377   48.3179 R1         2 LUT      0.094572
    206 H173       68.7062   61.3631   52.3512 T4         2 LUT      0.093752
    207 H172       69.4883   62.1462   50.9780 T4         2 LUT      0.093752
    208 H171       68.3063   63.0141   51.7785 T4         2 LUT      0.093752
    209 H163       68.2382   59.3999   51.1410 T4         2 LUT      0.093752
    210 H162       67.2394   59.3480   49.6843 T4         2 LUT      0.093752
    211 H161       68.8153   60.1290   49.5775 T4         2 LUT      0.093752
    212 HO3        65.9256   62.5094   53.5670 Q1         2 LUT      0.300121
    213 H8         69.2971   63.4957   47.7036 U7         2 LUT      0.080784
    214 H7         67.4449   61.1157   47.7827 U6         2 LUT      0.042190
    215 H42        64.5659   63.9058   50.2222 U5         2 LUT      0.145166
    216 H41        65.9229   64.6676   51.0746 U5         2 LUT      0.145166
    217 H35        76.2902   65.5790   42.4586 T3         2 LUT      0.077919
    218 H34        77.1417   64.0891   39.9029 T2         2 LUT      0.073626
    219 H32        79.1479   64.5399   39.0232 T1         2 LUT      0.092510
    220 H31        80.9869   66.8067   39.8104 U9         2 LUT      0.070048
    221 H30        81.0781   64.7500   37.5242 U8         2 LUT      0.085442
    222 H3         64.3862   62.3257   51.7043 U3         2 LUT     -0.031596
    223 H28        82.7918   64.7281   36.1578 U7         2 LUT      0.084728
    224 H27        84.5690   67.1237   36.0597 U6         2 LUT      0.087291
    225 H26        84.2383   64.3977   34.3451 Q6         2 LUT      0.075325
    226 H24        85.0210   66.4693   31.1544 Q5         2 LUT      0.094482
    227 H23        87.3852   65.9247   32.1920 U3         2 LUT     -0.024869
    228 H22        65.4822   60.7991   50.5143 U2         2 LUT      0.127376
    229 H21        66.2735   60.4928   51.9759 U2         2 LUT      0.127376
    230 H15        74.8144   63.5449   40.6993 T3         2 LUT      0.093200
    231 H14        74.1376   65.0000   43.2799 T2         2 LUT      0.068865
    232 H12        72.4268   64.1776   44.5498 T1         2 LUT      0.095507
    233 H11        70.6820   61.8361   43.5717 U9         2 LUT      0.068930
    234 H10        70.4164   63.9559   45.7816 U8         2 LUT      0.083911
    235 H1         86.8574   64.6840   30.2873 Q1         2 LUT      0.297311
@<TRIPOS>BOND
    1     6     1 1
    2     7     2 1
    3     8     3 1
    4     9     4 1
    5    11     4 1
    6    12     6 1
    7    13     9 1
    8    16     9 1
    9    25     5 1
   10    25    16 1
   11    26    10 1
   12    26    17 1
   13    27    18 1
   14    28    14 1
   15    28    19 1
   16    29    12 1
   17    30    13 1
   18    31    24 1
   19    32     1 1
   20    32    25 1
   21    33    21 1
   22    33    26 1
   23    34    22 1
   24    34    27 1
   25    35    23 1
   26    35    28 1
   27    36    12 1
   28    36    24 1
   29    37    13 1
   30    37    15 1
   31    38    31 1
   32    39    20 1
   33    39    32 1
   34    40     2 1
   35    40    33 1
   36    41     3 1
   37    41    34 1
   38    42     4 1
   39    42    35 1
   40    43    38 1
   41    44     5 1
   42    44    17 1
   43    44    39 1
   44    45    10 1
   45    45    18 1
   46    45    40 1
   47    46    19 1
   48    46    41 1
   49    47    14 1
   50    47    16 1
   51    47    42 1
   52    48    38 1
   53    49    48 1
   54    50    49 1
   55    51    50 1
   56    52    51 1
   57    53    51 1
   58    54    53 1
   59    55    54 1
   60    56    55 1
   61    57    56 1
   62    58    56 1
   63    59    58 1
   64    60    59 1
   65    61    60 1
   66    62    61 1
   67    63    61 1
   68    64    27 1
   69    64    46 1
   70    65     5 1
   71    65    10 1
   72    65    64 1
   73    65    14 1
   74    66    23 1
   75    67    23 1
   76    68    23 1
   77    69    22 1
   78    70    22 1
   79    71    22 1
   80    72    21 1
   81    73    21 1
   82    74    21 1
   83    75    20 1
   84    76    20 1
   85    77    20 1
   86    78    15 1
   87    79    15 1
   88    80    15 1
   89    81     8 1
   90    82     8 1
   91    83     8 1
   92    84     7 1
   93    85     7 1
   94    86     6 1
   95    87     6 1
   96    88     3 1
   97    89     3 1
   98    90     1 1
   99    91     1 1
  100    92    63 1
  101    93    63 1
  102    94    63 1
  103    95    62 1
  104    96    62 1
  105    97    62 1
  106    98    60 1
  107    99    60 1
  108   100    59 1
  109   101    59 1
  110   102    58 1
  111   103    58 1
  112   104    57 1
  113   105    57 1
  114   106    57 1
  115   107    55 1
  116   108    55 1
  117   109    54 1
  118   110    54 1
  119   111    53 1
  120   112    53 1
  121   113    19 1
  122   114    18 1
  123   115    17 1
  124   116     9 1
  125   117     2 1
  126   118    52 1
  127   119    52 1
  128   120    52 1
  129   121    51 1
  130   122    50 1
  131   123    50 1
  132   124    49 1
  133   125    49 1
  134   126    48 1
  135   127    48 1
  136   128    43 1
  137   129    43 1
  138   130    43 1
  139   131    39 1
  140   132    32 1
  141   133    31 1
  142   134    61 1
  143   135    56 1
  144   136    24 1
  145   137    24 1
  146   139   138 1
  147   140   139 1
  148   141   140 1
  149   142   140 1
  150   143   142 1
  151   144   138 1
  152   144   143 1
  153   145   144 1
  154   146   145 1
  155   147   146 1
  156   148   147 1
  157   149   148 1
  158   150   149 1
  159   151   150 1
  160   152   151 1
  161   153   152 1
  162   154   138 1
  163   155   138 1
  164   156   143 1
  165   157   147 1
  166   158   151 1
  167   160   159 1
  168   161   160 1
  169   162   161 1
  170   163   161 1
  171   164   163 1
  172   165   159 1
  173   165   164 1
  174   166   165 1
  175   167   166 1
  176   168   167 1
  177   169   168 1
  178   170   169 1
  179   171   170 1
  180   172   171 1
  181   173   172 1
  182   174   153 1
  183   174   173 1
  184   175   159 1
  185   176   159 1
  186   177   164 1
  187   178   168 1
  188   179   172 1
  189   180   179 1
  190   181   179 1
  191   182   179 1
  192   183   178 1
  193   184   178 1
  194   185   178 1
  195   186   177 1
  196   187   177 1
  197   188   177 1
  198   189   176 1
  199   190   176 1
  200   191   176 1
  201   192   175 1
  202   193   175 1
  203   194   175 1
  204   195   160 1
  205   196   160 1
  206   197   158 1
  207   198   158 1
  208   199   158 1
  209   200   157 1
  210   201   157 1
  211   202   157 1
  212   203   156 1
  213   204   156 1
  214   205   156 1
  215   206   155 1
  216   207   155 1
  217   208   155 1
  218   209   154 1
  219   210   154 1
  220   211   154 1
  221   212   141 1
  222   213   146 1
  223   214   145 1
  224   215   142 1
  225   216   142 1
  226   217   174 1
  227   218   173 1
  228   219   171 1
  229   220   170 1
  230   221   169 1
  231   222   140 1
  232   223   167 1
  233   224   166 1
  234   225   165 1
  235   226   163 1
  236   227   161 1
  237   228   139 1
  238   229   139 1
  239   230   153 1
  240   231   152 1
  241   232   150 1
  242   233   149 1
  243   234   148 1
  244   235   162 1
  245   65    153 1
  246   65    174 1
@<TRIPOS>SUBSTRUCTURE
      1 CLA               1 ****               0 ****  **** 
      2 LUT             138 ****               0 ****  **** 
