@<TRIPOS>MOLECULE
Cpptraj generated mol2 file.
  235   246     2     0     0
SMALL
USER_CHARGES


@<TRIPOS>ATOM
      1 CAA        78.4940   59.4877   34.0247 a2         1 CLA     -0.055900
      2 CAB        78.9954   62.8331   43.2204 c8         1 CLA     -0.148500
      3 CAC        72.3521   58.6925   43.0064 a2         1 CLA     -0.012600
      4 CAD        74.4256   56.5892   35.4582 ck         1 CLA      0.398800
      5 NA         77.6484   59.5571   37.5357 ns         1 CLA     -0.225500
      6 CBA        79.6410   59.1896   32.9456 a2         1 CLA     -0.135000
      7 CBB        80.2141   62.8302   43.8294 c0         1 CLA     -0.395200
      8 CBC        72.3629   57.1775   42.8656 a3         1 CLA     -0.037700
      9 CBD        75.8768   57.1084   35.0096 a1         1 CLA     -0.053900
     10 NB         77.8105   61.0253   40.0924 nm         1 CLA     -0.295700
     11 OBD        73.6883   55.8935   34.7913 o2         1 CLA     -0.494600
     12 CGA        79.9772   57.6622   32.6944 c4         1 CLA      0.827000
     13 CGD        76.7540   55.9754   34.5517 c4         1 CLA      0.655300
     14 ND         74.9593   58.7239   38.2393 nm         1 CLA     -0.291600
     15 CED        77.5917   53.7702   35.0287 a3         1 CLA      0.005400
     16 CHA        76.3309   58.0498   36.2189 cs         1 CLA     -0.123800
     17 CHB        79.5873   60.7399   38.5153 aa         1 CLA     -0.291900
     18 CHC        76.7098   61.2287   42.2657 aa         1 CLA     -0.090400
     19 CHD        73.2944   58.6323   39.9887 aa         1 CLA     -0.052000
     20 CMA        80.9861   58.8080   36.5756 a3         1 CLA     -0.230700
     21 CMB        81.2760   62.5584   40.4967 a3         1 CLA     -0.180800
     22 CMC        74.7654   60.3241   44.5887 a3         1 CLA     -0.134000
     23 CMD        71.9302   56.5840   37.7122 a3         1 CLA     -0.141100
     24 C1         81.0530   55.6410   33.5166 a2         1 CLA      0.023000
     25 C1A        77.4860   58.8062   36.3650 ac         1 CLA     -0.015100
     26 C1B        79.0774   61.2804   39.7353 cr         1 CLA      0.054700
     27 C1C        75.4812   60.5478   42.0277 cn         1 CLA     -0.005600
     28 C1D        73.7355   58.2420   38.6951 ap         1 CLA     -0.047300
     29 O1A        79.5184   57.1015   31.6878 o2         1 CLA     -0.610800
     30 O1D        77.2759   55.9213   33.4568 o2         1 CLA     -0.558200
     31 C2         81.9386   55.3574   34.7735 c8         1 CLA     -0.325100
     32 C2A        78.7178   58.8779   35.4518 a1         1 CLA      0.098600
     33 C2B        79.8021   62.1350   40.7383 cb         1 CLA      0.088500
     34 C2C        74.6112   60.0418   43.0949 cb         1 CLA      0.053700
     35 C2D        73.2112   57.3341   37.7233 cb         1 CLA      0.058900
     36 O2A        80.8878   57.1266   33.6006 o1         1 CLA     -0.437200
     37 O2D        76.9118   54.9653   35.4757 o1         1 CLA     -0.357600
     38 C3         81.9041   54.2434   35.5366 c5         1 CLA      0.031200
     39 C3A        79.6994   59.7171   36.2802 a1         1 CLA      0.166800
     40 C3B        78.9308   62.2364   41.8623 cb         1 CLA      0.035000
     41 C3C        73.5761   59.3719   42.4155 cb         1 CLA     -0.089900
     42 C3D        74.1693   57.3014   36.7393 cb         1 CLA     -0.035900
     43 C4         81.0343   53.9627   36.7152 a3         1 CLA     -0.053300
     44 C4A        78.9376   60.0667   37.5198 ac         1 CLA      0.001800
     45 C4B        77.7473   61.4525   41.3969 cn         1 CLA     -0.020900
     46 C4C        73.9730   59.2556   41.0354 cr         1 CLA     -0.044400
     47 C4D        75.2551   58.1159   37.1267 c6         1 CLA     -0.046000
     48 C5         83.1300   53.3318   35.2560 a2         1 CLA     -0.070400
     49 C6         84.5350   53.8609   35.6562 a2         1 CLA      0.043900
     50 C7         84.6084   54.1666   37.1723 a2         1 CLA     -0.150000
     51 C8         84.0521   55.5927   37.5438 a1         1 CLA      0.064200
     52 C9         84.9275   56.7861   37.1147 a3         1 CLA     -0.259300
     53 C10        83.9911   55.6089   39.0324 a2         1 CLA     -0.071900
     54 C11        82.8710   56.4892   39.5862 a2         1 CLA      0.014500
     55 C12        82.8847   56.7498   41.1547 a2         1 CLA     -0.112100
     56 C13        81.6762   57.6311   41.6907 a1         1 CLA      0.089200
     57 C14        81.7283   58.9959   40.9235 a3         1 CLA     -0.239100
     58 C15        81.5447   57.8126   43.2485 a2         1 CLA     -0.102200
     59 C16        82.5777   58.7037   43.9167 a2         1 CLA      0.023900
     60 C17        82.2016   58.7110   45.4633 a2         1 CLA     -0.105700
     61 C18        82.9780   59.5371   46.4304 a1         1 CLA      0.206800
     62 C19        83.9294   58.5826   47.2148 a3         1 CLA     -0.280100
     63 C20        83.7375   60.7511   45.9115 a3         1 CLA     -0.280100
     64 NC         75.0866   60.0981   40.8145 nx         1 CLA     -0.309200
     65 MG         76.2881   59.9547   39.1354 mg         1 CLA      0.895000
     66 HMD3       71.9365   55.7719   38.4420 dc         1 CLA      0.064300
     67 HMD2       71.1077   57.3002   37.8121 dc         1 CLA      0.064300
     68 HMD1       71.8596   56.0583   36.7157 dc         1 CLA      0.064300
     69 HMC3       75.1516   61.3397   44.8435 dc         1 CLA      0.052100
     70 HMC2       73.7994   60.1528   45.0330 dc         1 CLA      0.052100
     71 HMC1       75.4219   59.5486   44.9734 dc         1 CLA      0.052100
     72 HMB3       81.5864   62.9050   39.5447 dc         1 CLA      0.063600
     73 HMB2       81.3466   63.3765   41.2299 dc         1 CLA      0.063600
     74 HMB1       81.9057   61.7134   40.7844 dc         1 CLA      0.063600
     75 HMA3       80.6100   57.9812   37.1503 dc         1 CLA      0.058300
     76 HMA2       81.5011   58.4154   35.6981 dc         1 CLA      0.058300
     77 HMA1       81.7501   59.3691   37.1362 dc         1 CLA      0.058300
     78 HED3       78.4496   54.0850   34.3964 dc         1 CLA      0.079300
     79 HED2       77.8933   53.3535   35.9148 dc         1 CLA      0.079300
     80 HED1       76.8492   53.1364   34.5623 dc         1 CLA      0.079300
     81 HBC3       72.7261   56.8298   41.9374 dc         1 CLA      0.016300
     82 HBC2       73.0356   56.9371   43.6066 dc         1 CLA      0.016300
     83 HBC1       71.4018   56.6932   43.1071 dc         1 CLA      0.016300
     84 HBB2       80.3969   63.3373   44.7866 da         1 CLA      0.183000
     85 HBB1       81.1507   62.4403   43.3119 da         1 CLA      0.183000
     86 HBA2       79.3744   59.6445   31.9955 dc         1 CLA      0.029400
     87 HBA1       80.5233   59.6780   33.3314 dc         1 CLA      0.029400
     88 HAC2       72.2409   59.0072   43.9859 dc         1 CLA      0.029300
     89 HAC1       71.4397   59.0174   42.4757 dc         1 CLA      0.029300
     90 HAA2       77.5390   59.0989   33.5626 dc         1 CLA      0.028700
     91 HAA1       78.3607   60.5818   34.1955 dc         1 CLA      0.028700
     92 H203       84.2237   61.1526   46.8267 dc         1 CLA      0.065600
     93 H202       84.5498   60.4983   45.1727 dc         1 CLA      0.065600
     94 H201       83.0237   61.4061   45.5015 dc         1 CLA      0.065600
     95 H193       84.6851   58.1529   46.5458 dc         1 CLA      0.065600
     96 H192       84.4900   59.1283   47.9666 dc         1 CLA      0.065600
     97 H191       83.2801   57.8713   47.6767 dc         1 CLA      0.065600
     98 H172       81.2399   59.2220   45.4558 dc         1 CLA      0.027600
     99 H171       81.9262   57.7374   45.9069 dc         1 CLA      0.027600
    100 H162       83.5747   58.2197   43.8956 dc         1 CLA      0.002900
    101 H161       82.6239   59.6661   43.4632 dc         1 CLA      0.002900
    102 H152       80.6125   58.2808   43.4154 dc         1 CLA      0.029100
    103 H151       81.5420   56.8224   43.7528 dc         1 CLA      0.029100
    104 H143       80.9679   59.6459   41.2908 dc         1 CLA      0.063600
    105 H142       82.7155   59.4293   41.0325 dc         1 CLA      0.063600
    106 H141       81.4200   59.0069   39.9292 dc         1 CLA      0.063600
    107 H122       82.8777   55.7728   41.5845 dc         1 CLA      0.032500
    108 H121       83.8308   57.1856   41.4184 dc         1 CLA      0.032500
    109 H112       82.9697   57.4271   39.0636 dc         1 CLA      0.006600
    110 H111       81.8330   56.1734   39.2786 dc         1 CLA      0.006600
    111 H102       83.6700   54.5655   39.4463 dc         1 CLA      0.024100
    112 H101       84.9481   55.9861   39.4751 dc         1 CLA      0.024100
    113 HHD        72.3107   58.2415   40.2070 da         1 CLA      0.174300
    114 HHC        76.8910   61.5683   43.2133 da         1 CLA      0.136800
    115 HHB        80.5993   61.0405   38.3058 da         1 CLA      0.138300
    116 HBD        75.8105   57.7001   34.1570 dc         1 CLA      0.107700
    117 HAB        78.1521   63.2647   43.6792 da         1 CLA      0.155200
    118 H93        84.7262   57.7271   37.6744 dc         1 CLA      0.069500
    119 H92        85.9513   56.4198   37.3903 dc         1 CLA      0.069500
    120 H91        84.9431   56.9930   36.0097 dc         1 CLA      0.069500
    121 H8         83.0104   55.7232   37.2769 dc         1 CLA      0.029300
    122 H72        84.0033   53.4338   37.7097 dc         1 CLA      0.044400
    123 H71        85.6446   54.0287   37.4573 dc         1 CLA      0.044400
    124 H62        85.3044   53.1349   35.3510 dc         1 CLA      0.015600
    125 H61        84.7328   54.7941   35.1239 dc         1 CLA      0.015600
    126 H52        82.9212   52.4135   35.7583 dc         1 CLA      0.033200
    127 H51        83.1646   53.1983   34.1573 dc         1 CLA      0.033200
    128 H43        80.7441   52.8716   36.6526 dc         1 CLA      0.037000
    129 H42        81.5000   54.0784   37.6901 dc         1 CLA      0.037000
    130 H41        80.2037   54.6174   36.6659 dc         1 CLA      0.037000
    131 H3A        79.9421   60.6098   35.7164 dc         1 CLA      0.041100
    132 H2A        79.1232   57.7931   35.5013 dc         1 CLA      0.083100
    133 H2         82.5485   56.2125   35.1255 da         1 CLA      0.180900
    134 H18        82.4017   59.8704   47.2298 dc         1 CLA     -0.003900
    135 H13        80.8016   57.1088   41.2791 dc         1 CLA      0.019700
    136 H12        80.1598   55.0697   33.4913 dc         1 CLA      0.120400
    137 H11        81.4448   55.2853   32.5905 dc         1 CLA      0.120400
    138 C1         68.6838   61.5308   50.2400 Z1         2 LUT      0.509236
    139 C2         67.4208   61.2408   50.9886 Z2         2 LUT     -0.434695
    140 C3         66.5928   62.4833   51.4076 Z3         2 LUT      0.437453
    141 O3         67.0485   62.8960   52.6641 S1         2 LUT     -0.547129
    142 C4         66.7946   63.6922   50.4772 Z4         2 LUT     -0.468603
    143 C5         67.5261   63.5147   49.1871 Z5         2 LUT      0.279246
    144 C6         68.4442   62.5274   49.0359 Z6         2 LUT     -0.305473
    145 C7         68.9189   62.0266   47.6728 Z7         2 LUT      0.069402
    146 C8         69.7143   62.7348   46.8400 Z8         2 LUT     -0.191631
    147 C9         70.3034   62.3583   45.5750 Z9         2 LUT      0.196698
    148 C10        71.3190   63.1803   45.0997 Y1         2 LUT     -0.208611
    149 C11        72.0548   63.1217   43.8622 Y2         2 LUT      0.030784
    150 C12        73.0634   64.0207   43.5268 Y3         2 LUT     -0.220316
    151 C13        73.9279   63.9933   42.3211 Y4         2 LUT      0.215937
    152 C14        75.1282   64.7143   42.4202 Y5         2 LUT     -0.185793
    153 C15        76.2026   64.8067   41.4581 Y6         2 LUT     -0.057835
    154 C16        69.2950   60.1985   49.9409 Y7         2 LUT     -0.405615
    155 C17        69.7143   62.2087   51.2500 Y7         2 LUT     -0.405615
    156 C18        67.0016   64.3952   48.0438 Y9         2 LUT     -0.369639
    157 C19        69.6910   61.2834   44.7735 W1         2 LUT     -0.333362
    158 C20        73.5207   63.0476   41.1454 W2         2 LUT     -0.323439
    159 C21        87.0781   66.3239   34.8293 Z1         2 LUT      0.406104
    160 C22        87.6557   65.8419   33.4727 Z2         2 LUT     -0.404965
    161 C23        87.7368   66.7042   32.2670 Z3         2 LUT      0.391255
    162 O23        88.2176   65.9302   31.2301 S1         2 LUT     -0.528210
    163 C24        86.4724   67.5973   32.1318 W6         2 LUT     -0.258361
    164 C25        85.5679   67.7463   33.1289 Z5         2 LUT      0.133546
    165 C26        85.6113   66.8985   34.4544 W8         2 LUT     -0.147008
    166 C27        84.9458   67.5175   35.5967 Z7         2 LUT      0.023843
    167 C28        83.9811   66.9331   36.3371 Z8         2 LUT     -0.216987
    168 C29        83.4289   67.2904   37.5855 Z9         2 LUT      0.206524
    169 C30        82.3177   66.6842   38.1289 Y1         2 LUT     -0.215556
    170 C31        81.6380   66.6682   39.3941 Y2         2 LUT      0.025142
    171 C32        80.4648   65.9791   39.5627 Y3         2 LUT     -0.212209
    172 C33        79.5895   66.0838   40.8105 Y4         2 LUT      0.240937
    173 C34        78.4185   65.4526   40.6541 Y5         2 LUT     -0.218862
    174 C35        77.3718   65.4721   41.6355 Y6         2 LUT     -0.023547
    175 C36        88.0702   67.4278   35.4009 Y7         2 LUT     -0.393485
    176 C37        87.1397   65.0985   35.8190 Y7         2 LUT     -0.393485
    177 C38        84.3390   68.6783   32.8539 Y9         2 LUT     -0.387526
    178 C39        84.1641   68.4028   38.1941 W1         2 LUT     -0.322618
    179 C40        79.8211   67.1004   41.8924 W2         2 LUT     -0.358472
    180 H403       79.1233   66.9601   42.7572 R7         2 LUT      0.097720
    181 H402       80.8323   67.2962   42.2008 R7         2 LUT      0.097720
    182 H401       79.5084   68.0899   41.4885 R7         2 LUT      0.097720
    183 H393       83.7643   68.6408   39.1573 R4         2 LUT      0.082505
    184 H392       85.1887   68.2416   38.4052 R4         2 LUT      0.082505
    185 H391       83.9452   69.2619   37.5517 R4         2 LUT      0.082505
    186 H383       83.4813   68.5157   33.5420 R1         2 LUT      0.104030
    187 H382       84.6001   69.6900   32.7847 R1         2 LUT      0.104030
    188 H381       83.9204   68.3861   31.9061 R1         2 LUT      0.104030
    189 H373       87.1188   65.5610   36.8755 T4         2 LUT      0.089537
    190 H372       86.2802   64.3923   35.6018 T4         2 LUT      0.089537
    191 H371       88.1186   64.5231   35.7659 T4         2 LUT      0.089537
    192 H363       87.9972   67.6284   36.4996 T4         2 LUT      0.089537
    193 H362       89.1067   67.0972   35.4277 T4         2 LUT      0.089537
    194 H361       88.1088   68.3311   34.8089 T4         2 LUT      0.089537
    195 H222       88.6577   65.4747   33.5408 U2         2 LUT      0.127376
    196 H221       87.1723   65.0102   33.1476 U2         2 LUT      0.127376
    197 H203       73.2137   62.0534   41.4292 R7         2 LUT      0.087068
    198 H202       72.7287   63.4966   40.5371 R7         2 LUT      0.087068
    199 H201       74.3369   62.9153   40.4176 R7         2 LUT      0.087068
    200 H193       68.6758   61.0824   45.0137 R4         2 LUT      0.089716
    201 H192       69.5316   61.5120   43.6963 R4         2 LUT      0.089716
    202 H191       70.1865   60.4032   45.0390 R4         2 LUT      0.089716
    203 H183       67.3009   64.0394   47.0643 R1         2 LUT      0.094572
    204 H182       65.9371   64.5640   48.1718 R1         2 LUT      0.094572
    205 H181       67.3030   65.4340   48.0949 R1         2 LUT      0.094572
    206 H173       70.0020   61.6007   52.1390 T4         2 LUT      0.093752
    207 H172       70.6581   62.4732   50.8833 T4         2 LUT      0.093752
    208 H171       69.2895   63.1871   51.5994 T4         2 LUT      0.093752
    209 H163       70.2707   60.3815   49.6431 T4         2 LUT      0.093752
    210 H162       69.2884   59.6138   50.7911 T4         2 LUT      0.093752
    211 H161       68.7812   59.7083   49.1778 T4         2 LUT      0.093752
    212 HO3        66.4589   62.7379   53.4127 Q1         2 LUT      0.300121
    213 H8         69.9709   63.6916   47.1945 U7         2 LUT      0.080784
    214 H7         68.5475   60.9918   47.5046 U6         2 LUT      0.042190
    215 H42        65.7538   63.8023   50.1599 U5         2 LUT      0.145166
    216 H41        66.9965   64.6802   50.9571 U5         2 LUT      0.145166
    217 H35        77.3605   65.9839   42.5919 T3         2 LUT      0.077919
    218 H34        78.1795   64.9550   39.7350 T2         2 LUT      0.073626
    219 H32        80.0594   65.4215   38.7770 T1         2 LUT      0.092510
    220 H31        82.0821   67.1904   40.2561 U9         2 LUT      0.070048
    221 H30        81.7931   65.9674   37.5937 U8         2 LUT      0.085442
    222 H3         65.5088   62.1621   51.4020 U3         2 LUT     -0.031596
    223 H28        83.7242   65.9578   36.0759 U7         2 LUT      0.084728
    224 H27        85.2201   68.5540   35.8559 U6         2 LUT      0.087291
    225 H26        85.1395   65.9237   34.2200 Q6         2 LUT      0.075325
    226 H24        86.3867   68.3145   31.3335 Q5         2 LUT      0.094482
    227 H23        88.4821   67.4449   32.5248 U3         2 LUT     -0.024869
    228 H22        66.6927   60.6035   50.4769 U2         2 LUT      0.127376
    229 H21        67.4443   60.5721   51.8873 U2         2 LUT      0.127376
    230 H15        76.0831   64.2608   40.5205 T3         2 LUT      0.093200
    231 H14        75.4092   65.1193   43.4248 T2         2 LUT      0.068865
    232 H12        73.1779   64.7025   44.3769 T1         2 LUT      0.095507
    233 H11        71.8450   62.2785   43.2572 U9         2 LUT      0.068930
    234 H10        71.6131   63.9975   45.7936 U8         2 LUT      0.083911
    235 H1         88.3260   66.5337   30.4403 Q1         2 LUT      0.297311
@<TRIPOS>BOND
    1     6     1 1
    2     7     2 1
    3     8     3 1
    4     9     4 1
    5    11     4 1
    6    12     6 1
    7    13     9 1
    8    16     9 1
    9    25     5 1
   10    25    16 1
   11    26    10 1
   12    26    17 1
   13    27    18 1
   14    28    14 1
   15    28    19 1
   16    29    12 1
   17    30    13 1
   18    31    24 1
   19    32     1 1
   20    32    25 1
   21    33    21 1
   22    33    26 1
   23    34    22 1
   24    34    27 1
   25    35    23 1
   26    35    28 1
   27    36    12 1
   28    36    24 1
   29    37    13 1
   30    37    15 1
   31    38    31 1
   32    39    20 1
   33    39    32 1
   34    40     2 1
   35    40    33 1
   36    41     3 1
   37    41    34 1
   38    42     4 1
   39    42    35 1
   40    43    38 1
   41    44     5 1
   42    44    17 1
   43    44    39 1
   44    45    10 1
   45    45    18 1
   46    45    40 1
   47    46    19 1
   48    46    41 1
   49    47    14 1
   50    47    16 1
   51    47    42 1
   52    48    38 1
   53    49    48 1
   54    50    49 1
   55    51    50 1
   56    52    51 1
   57    53    51 1
   58    54    53 1
   59    55    54 1
   60    56    55 1
   61    57    56 1
   62    58    56 1
   63    59    58 1
   64    60    59 1
   65    61    60 1
   66    62    61 1
   67    63    61 1
   68    64    27 1
   69    64    46 1
   70    65     5 1
   71    65    10 1
   72    65    64 1
   73    65    14 1
   74    66    23 1
   75    67    23 1
   76    68    23 1
   77    69    22 1
   78    70    22 1
   79    71    22 1
   80    72    21 1
   81    73    21 1
   82    74    21 1
   83    75    20 1
   84    76    20 1
   85    77    20 1
   86    78    15 1
   87    79    15 1
   88    80    15 1
   89    81     8 1
   90    82     8 1
   91    83     8 1
   92    84     7 1
   93    85     7 1
   94    86     6 1
   95    87     6 1
   96    88     3 1
   97    89     3 1
   98    90     1 1
   99    91     1 1
  100    92    63 1
  101    93    63 1
  102    94    63 1
  103    95    62 1
  104    96    62 1
  105    97    62 1
  106    98    60 1
  107    99    60 1
  108   100    59 1
  109   101    59 1
  110   102    58 1
  111   103    58 1
  112   104    57 1
  113   105    57 1
  114   106    57 1
  115   107    55 1
  116   108    55 1
  117   109    54 1
  118   110    54 1
  119   111    53 1
  120   112    53 1
  121   113    19 1
  122   114    18 1
  123   115    17 1
  124   116     9 1
  125   117     2 1
  126   118    52 1
  127   119    52 1
  128   120    52 1
  129   121    51 1
  130   122    50 1
  131   123    50 1
  132   124    49 1
  133   125    49 1
  134   126    48 1
  135   127    48 1
  136   128    43 1
  137   129    43 1
  138   130    43 1
  139   131    39 1
  140   132    32 1
  141   133    31 1
  142   134    61 1
  143   135    56 1
  144   136    24 1
  145   137    24 1
  146   139   138 1
  147   140   139 1
  148   141   140 1
  149   142   140 1
  150   143   142 1
  151   144   138 1
  152   144   143 1
  153   145   144 1
  154   146   145 1
  155   147   146 1
  156   148   147 1
  157   149   148 1
  158   150   149 1
  159   151   150 1
  160   152   151 1
  161   153   152 1
  162   154   138 1
  163   155   138 1
  164   156   143 1
  165   157   147 1
  166   158   151 1
  167   160   159 1
  168   161   160 1
  169   162   161 1
  170   163   161 1
  171   164   163 1
  172   165   159 1
  173   165   164 1
  174   166   165 1
  175   167   166 1
  176   168   167 1
  177   169   168 1
  178   170   169 1
  179   171   170 1
  180   172   171 1
  181   173   172 1
  182   174   153 1
  183   174   173 1
  184   175   159 1
  185   176   159 1
  186   177   164 1
  187   178   168 1
  188   179   172 1
  189   180   179 1
  190   181   179 1
  191   182   179 1
  192   183   178 1
  193   184   178 1
  194   185   178 1
  195   186   177 1
  196   187   177 1
  197   188   177 1
  198   189   176 1
  199   190   176 1
  200   191   176 1
  201   192   175 1
  202   193   175 1
  203   194   175 1
  204   195   160 1
  205   196   160 1
  206   197   158 1
  207   198   158 1
  208   199   158 1
  209   200   157 1
  210   201   157 1
  211   202   157 1
  212   203   156 1
  213   204   156 1
  214   205   156 1
  215   206   155 1
  216   207   155 1
  217   208   155 1
  218   209   154 1
  219   210   154 1
  220   211   154 1
  221   212   141 1
  222   213   146 1
  223   214   145 1
  224   215   142 1
  225   216   142 1
  226   217   174 1
  227   218   173 1
  228   219   171 1
  229   220   170 1
  230   221   169 1
  231   222   140 1
  232   223   167 1
  233   224   166 1
  234   225   165 1
  235   226   163 1
  236   227   161 1
  237   228   139 1
  238   229   139 1
  239   230   153 1
  240   231   152 1
  241   232   150 1
  242   233   149 1
  243   234   148 1
  244   235   162 1
  245   65    153 1
  246   65    174 1
@<TRIPOS>SUBSTRUCTURE
      1 CLA               1 ****               0 ****  **** 
      2 LUT             138 ****               0 ****  **** 
