@<TRIPOS>MOLECULE
Cpptraj generated mol2 file.
  235   246     2     0     0
SMALL
USER_CHARGES


@<TRIPOS>ATOM
      1 CAA        78.4069   57.0730   35.4094 a2         1 CLA     -0.055900
      2 CAB        77.1328   61.6373   43.9702 c8         1 CLA     -0.148500
      3 CAC        70.9087   56.6812   43.1829 a2         1 CLA     -0.012600
      4 CAD        74.2818   54.2795   36.2527 ck         1 CLA      0.398800
      5 NA         76.9536   57.7443   38.5409 ns         1 CLA     -0.225500
      6 CBA        79.7378   56.8526   34.7193 a2         1 CLA     -0.135000
      7 CBB        78.0906   61.8527   44.9047 c0         1 CLA     -0.395200
      8 CBC        70.9462   55.1692   43.1143 a3         1 CLA     -0.037700
      9 CBD        75.7690   54.9160   36.0950 a1         1 CLA     -0.053900
     10 NB         76.4836   59.4771   41.0210 nm         1 CLA     -0.295700
     11 OBD        73.7319   53.4459   35.5432 o2         1 CLA     -0.494600
     12 CGA        80.2719   55.4850   34.5611 c4         1 CLA      0.827000
     13 CGD        76.7467   53.8799   36.2416 c4         1 CLA      0.655300
     14 ND         74.2418   56.5466   39.0475 nm         1 CLA     -0.291600
     15 CED        77.4819   52.0291   37.6566 a3         1 CLA      0.005400
     16 CHA        75.8828   55.9833   37.2658 cs         1 CLA     -0.123800
     17 CHB        78.5606   59.2456   39.6413 aa         1 CLA     -0.291900
     18 CHC        75.0778   59.6057   42.9946 aa         1 CLA     -0.090400
     19 CHD        72.2975   56.5490   40.3677 aa         1 CLA     -0.052000
     20 CMA        80.3388   56.9286   38.6303 a3         1 CLA     -0.230700
     21 CMB        79.5944   61.4065   41.6345 a3         1 CLA     -0.180800
     22 CMC        72.6692   58.9469   44.9331 a3         1 CLA     -0.134000
     23 CMD        71.3061   54.4586   38.1072 a3         1 CLA     -0.141100
     24 C1         81.6320   53.7705   35.7233 a2         1 CLA      0.023000
     25 C1A        76.9726   56.8622   37.5285 ac         1 CLA     -0.015100
     26 C1B        77.7723   59.8526   40.7003 cr         1 CLA      0.054700
     27 C1C        74.0654   58.6889   42.6923 cn         1 CLA     -0.005600
     28 C1D        72.9640   56.0982   39.2269 ap         1 CLA     -0.047300
     29 O1A        80.2542   54.8222   33.5371 o2         1 CLA     -0.610800
     30 O1D        77.7126   53.7224   35.5228 o2         1 CLA     -0.558200
     31 C2         81.3107   53.1158   36.9847 c8         1 CLA     -0.325100
     32 C2A        78.3801   56.7396   36.9487 a1         1 CLA      0.098600
     33 C2B        78.2507   60.7853   41.7074 cb         1 CLA      0.088500
     34 C2C        72.9223   58.3264   43.5670 cb         1 CLA      0.053700
     35 C2D        72.5593   55.1340   38.2448 cb         1 CLA      0.058900
     36 O2A        80.8421   54.9503   35.7183 o1         1 CLA     -0.437200
     37 O2D        76.5166   53.1118   37.3879 o1         1 CLA     -0.357600
     38 C3         82.2121   52.7507   37.9405 c5         1 CLA      0.031200
     39 C3A        79.2561   57.6874   37.8206 a1         1 CLA      0.166800
     40 C3B        77.2344   60.9139   42.6977 cb         1 CLA      0.035000
     41 C3C        72.1408   57.4196   42.8141 cb         1 CLA     -0.089900
     42 C3D        73.7435   54.9694   37.4965 cb         1 CLA     -0.035900
     43 C4         82.7890   51.3587   37.9326 a3         1 CLA     -0.053300
     44 C4A        78.1542   58.2990   38.7426 ac         1 CLA      0.001800
     45 C4B        76.1574   60.0288   42.2272 cn         1 CLA     -0.020900
     46 C4C        72.7471   57.2985   41.4734 cr         1 CLA     -0.044400
     47 C4D        74.6784   55.9143   38.0041 c6         1 CLA     -0.046000
     48 C5         82.5027   53.5398   39.1180 a2         1 CLA     -0.070400
     49 C6         83.7207   54.4431   39.0445 a2         1 CLA      0.043900
     50 C7         84.0011   55.1456   40.3761 a2         1 CLA     -0.150000
     51 C8         85.0500   56.3085   40.3487 a1         1 CLA      0.064200
     52 C9         86.4018   55.8989   39.6890 a3         1 CLA     -0.259300
     53 C10        85.3142   57.0546   41.7079 a2         1 CLA     -0.071900
     54 C11        84.1384   57.8248   42.2509 a2         1 CLA      0.014500
     55 C12        84.4998   58.8778   43.3172 a2         1 CLA     -0.112100
     56 C13        85.3935   58.5446   44.5039 a1         1 CLA      0.089200
     57 C14        84.7632   57.4799   45.4613 a3         1 CLA     -0.239100
     58 C15        85.7600   59.8498   45.2505 a2         1 CLA     -0.102200
     59 C16        84.5486   60.6489   45.8789 a2         1 CLA      0.023900
     60 C17        85.0992   61.4867   47.0190 a2         1 CLA     -0.105700
     61 C18        84.0849   62.4663   47.6952 a1         1 CLA      0.206800
     62 C19        82.9921   61.6405   48.3915 a3         1 CLA     -0.280100
     63 C20        84.8493   63.3156   48.6803 a3         1 CLA     -0.280100
     64 NC         73.9951   57.9457   41.5222 nx         1 CLA     -0.309200
     65 MG         75.4122   58.0166   40.0257 mg         1 CLA      0.895000
     66 HMD3       71.3208   53.5764   37.5164 dc         1 CLA      0.064300
     67 HMD2       70.9796   54.1316   38.9922 dc         1 CLA      0.064300
     68 HMD1       70.5061   55.1284   37.6966 dc         1 CLA      0.064300
     69 HMC3       72.4703   59.9577   44.7716 dc         1 CLA      0.052100
     70 HMC2       71.7444   58.4139   45.3620 dc         1 CLA      0.052100
     71 HMC1       73.6754   58.8566   45.4159 dc         1 CLA      0.052100
     72 HMB3       79.6233   62.1990   42.3618 dc         1 CLA      0.063600
     73 HMB2       80.4067   60.7190   41.8440 dc         1 CLA      0.063600
     74 HMB1       79.7589   61.8081   40.6376 dc         1 CLA      0.063600
     75 HMA3       80.8051   57.5725   39.2756 dc         1 CLA      0.058300
     76 HMA2       79.8260   56.1931   39.2350 dc         1 CLA      0.058300
     77 HMA1       81.1146   56.3749   38.0601 dc         1 CLA      0.058300
     78 HED3       77.6763   51.5337   36.7443 dc         1 CLA      0.079300
     79 HED2       78.3775   52.4879   38.0915 dc         1 CLA      0.079300
     80 HED1       76.9528   51.3640   38.3805 dc         1 CLA      0.079300
     81 HBC3       70.2764   54.7189   43.8124 dc         1 CLA      0.016300
     82 HBC2       70.7415   54.9585   42.0606 dc         1 CLA      0.016300
     83 HBC1       71.9336   54.7237   43.2204 dc         1 CLA      0.016300
     84 HBB2       77.9307   62.2606   45.8724 da         1 CLA      0.183000
     85 HBB1       79.0875   61.3900   44.7869 da         1 CLA      0.183000
     86 HBA2       79.8489   57.4694   33.8198 dc         1 CLA      0.029400
     87 HBA1       80.5006   57.3031   35.3351 dc         1 CLA      0.029400
     88 HAC2       70.6506   56.9817   44.2428 dc         1 CLA      0.029300
     89 HAC1       70.0725   56.9746   42.5222 dc         1 CLA      0.029300
     90 HAA2       77.7487   56.2928   34.9115 dc         1 CLA      0.028700
     91 HAA1       78.0011   58.0450   35.2314 dc         1 CLA      0.028700
     92 H203       84.2435   64.1852   48.8360 dc         1 CLA      0.065600
     93 H202       84.9952   62.7584   49.6538 dc         1 CLA      0.065600
     94 H201       85.9047   63.4532   48.3098 dc         1 CLA      0.065600
     95 H193       83.5263   61.2581   49.2350 dc         1 CLA      0.065600
     96 H192       82.2862   62.3444   48.7267 dc         1 CLA      0.065600
     97 H191       82.4744   60.9244   47.6715 dc         1 CLA      0.065600
     98 H172       85.5106   60.9330   47.8008 dc         1 CLA      0.027600
     99 H171       85.8877   62.1070   46.5888 dc         1 CLA      0.027600
    100 H162       84.1450   61.2925   45.0635 dc         1 CLA      0.002900
    101 H161       83.8548   60.0165   46.4155 dc         1 CLA      0.002900
    102 H152       86.4716   59.5503   45.9748 dc         1 CLA      0.029100
    103 H151       86.2471   60.6530   44.6049 dc         1 CLA      0.029100
    104 H143       85.5389   57.3320   46.2440 dc         1 CLA      0.063600
    105 H142       83.8256   57.8304   45.7913 dc         1 CLA      0.063600
    106 H141       84.7688   56.4611   45.0277 dc         1 CLA      0.063600
    107 H122       84.9243   59.7219   42.8348 dc         1 CLA      0.032500
    108 H121       83.5734   59.2755   43.6820 dc         1 CLA      0.032500
    109 H112       83.6925   58.4034   41.3852 dc         1 CLA      0.006600
    110 H111       83.4043   57.0797   42.6591 dc         1 CLA      0.006600
    111 H102       85.7008   56.3951   42.4865 dc         1 CLA      0.024100
    112 H101       86.0186   57.8295   41.5789 dc         1 CLA      0.024100
    113 HHD        71.2942   56.1831   40.4905 da         1 CLA      0.174300
    114 HHC        75.1176   59.9705   44.0370 da         1 CLA      0.136800
    115 HHB        79.5437   59.7272   39.5908 da         1 CLA      0.138300
    116 HBD        75.8189   55.4048   35.1040 dc         1 CLA      0.107700
    117 HAB        76.0679   61.9750   44.1918 da         1 CLA      0.155200
    118 H93        86.3097   55.8387   38.6020 dc         1 CLA      0.069500
    119 H92        87.1133   56.6982   39.8560 dc         1 CLA      0.069500
    120 H91        86.7295   54.9068   39.9931 dc         1 CLA      0.069500
    121 H8         84.6825   57.0976   39.6603 dc         1 CLA      0.029300
    122 H72        83.1292   55.6021   40.8320 dc         1 CLA      0.044400
    123 H71        84.4259   54.4328   41.0686 dc         1 CLA      0.044400
    124 H62        84.5292   53.8188   38.8125 dc         1 CLA      0.015600
    125 H61        83.5862   55.2012   38.2560 dc         1 CLA      0.015600
    126 H52        81.6643   54.2313   39.2082 dc         1 CLA      0.033200
    127 H51        82.5158   52.9079   40.0755 dc         1 CLA      0.033200
    128 H43        83.8988   51.4495   38.0223 dc         1 CLA      0.037000
    129 H42        82.3828   50.9159   38.8527 dc         1 CLA      0.037000
    130 H41        82.4284   50.7946   37.0754 dc         1 CLA      0.037000
    131 H3A        79.6986   58.5127   37.2645 dc         1 CLA      0.041100
    132 H2A        78.7880   55.7364   37.1268 dc         1 CLA      0.083100
    133 H2         80.3049   52.8148   36.9960 da         1 CLA      0.180900
    134 H18        83.6405   63.1271   46.9894 dc         1 CLA     -0.003900
    135 H13        86.3342   58.1362   44.0318 dc         1 CLA      0.019700
    136 H12        81.2329   53.0667   34.9451 dc         1 CLA      0.120400
    137 H11        82.6351   54.0369   35.5706 dc         1 CLA      0.120400
    138 C1         68.0623   60.6319   50.2902 Z1         2 LUT      0.509236
    139 C2         66.6549   60.5119   50.7744 Z2         2 LUT     -0.434695
    140 C3         65.8327   61.7383   51.0985 Z3         2 LUT      0.437453
    141 O3         65.7061   61.8861   52.4943 S1         2 LUT     -0.547129
    142 C4         66.2361   62.9692   50.2186 Z4         2 LUT     -0.468603
    143 C5         67.1206   62.6425   49.0049 Z5         2 LUT      0.279246
    144 C6         67.9704   61.5662   49.0734 Z6         2 LUT     -0.305473
    145 C7         68.4582   60.9857   47.8044 Z7         2 LUT      0.069402
    146 C8         69.3487   61.6414   47.0430 Z8         2 LUT     -0.191631
    147 C9         69.7905   61.3894   45.6990 Z9         2 LUT      0.196698
    148 C10        70.7477   62.1810   45.1602 Y1         2 LUT     -0.208611
    149 C11        71.3299   62.1333   43.7879 Y2         2 LUT      0.030784
    150 C12        72.4896   62.8190   43.6703 Y3         2 LUT     -0.220316
    151 C13        73.4590   63.0014   42.5081 Y4         2 LUT      0.215937
    152 C14        74.6373   63.6614   42.5561 Y5         2 LUT     -0.185793
    153 C15        75.7358   63.7411   41.6197 Y6         2 LUT     -0.057835
    154 C16        68.7016   59.1954   50.1707 Y7         2 LUT     -0.405615
    155 C17        68.9791   61.3646   51.3491 Y7         2 LUT     -0.405615
    156 C18        66.3945   62.9967   47.7291 Y9         2 LUT     -0.369639
    157 C19        69.1715   60.2708   44.8888 W1         2 LUT     -0.333362
    158 C20        73.2479   62.1519   41.3035 W2         2 LUT     -0.323439
    159 C21        87.1182   64.5484   35.3694 Z1         2 LUT      0.406104
    160 C22        87.9713   63.8574   34.2195 Z2         2 LUT     -0.404965
    161 C23        88.2921   64.8293   33.0338 Z3         2 LUT      0.391255
    162 O23        88.9855   63.9679   32.0786 S1         2 LUT     -0.528210
    163 C24        87.0958   65.7368   32.6484 W6         2 LUT     -0.258361
    164 C25        86.0128   65.9329   33.4538 Z5         2 LUT      0.133546
    165 C26        85.7535   65.0763   34.7384 W8         2 LUT     -0.147008
    166 C27        84.8476   65.7693   35.6968 Z7         2 LUT      0.023843
    167 C28        83.8486   65.2666   36.4826 Z8         2 LUT     -0.216987
    168 C29        83.1456   65.8770   37.6158 Z9         2 LUT      0.206524
    169 C30        82.0310   65.3660   38.1928 Y1         2 LUT     -0.215556
    170 C31        81.2725   65.5867   39.4019 Y2         2 LUT      0.025142
    171 C32        80.1027   64.9696   39.7402 Y3         2 LUT     -0.212209
    172 C33        79.2229   65.0821   40.8400 Y4         2 LUT      0.240937
    173 C34        78.0333   64.4514   40.8221 Y5         2 LUT     -0.218862
    174 C35        76.9322   64.5186   41.7573 Y6         2 LUT     -0.023547
    175 C36        87.8970   65.7298   36.0372 Y7         2 LUT     -0.393485
    176 C37        86.9398   63.5574   36.4870 Y7         2 LUT     -0.393485
    177 C38        84.9953   66.8448   32.9672 Y9         2 LUT     -0.387526
    178 C39        83.7291   67.1225   38.1196 W1         2 LUT     -0.322618
    179 C40        79.5810   66.1977   41.7802 W2         2 LUT     -0.358472
    180 H403       80.6196   66.0919   42.1490 R7         2 LUT      0.097720
    181 H402       79.5147   67.1619   41.2937 R7         2 LUT      0.097720
    182 H401       78.9744   66.2880   42.6232 R7         2 LUT      0.097720
    183 H393       83.3999   67.3127   39.1783 R4         2 LUT      0.082505
    184 H392       84.8047   67.2129   38.1568 R4         2 LUT      0.082505
    185 H391       83.3788   68.0656   37.6154 R4         2 LUT      0.082505
    186 H383       84.1042   66.1899   32.8189 R1         2 LUT      0.104030
    187 H382       84.6731   67.4465   33.8224 R1         2 LUT      0.104030
    188 H381       85.2283   67.4618   32.0614 R1         2 LUT      0.104030
    189 H373       87.9295   63.2225   36.7680 T4         2 LUT      0.089537
    190 H372       86.4881   63.9227   37.3874 T4         2 LUT      0.089537
    191 H371       86.3288   62.7881   36.1015 T4         2 LUT      0.089537
    192 H363       88.9129   65.4654   36.3715 T4         2 LUT      0.089537
    193 H362       87.9950   66.5366   35.2415 T4         2 LUT      0.089537
    194 H361       87.3418   66.2930   36.7717 T4         2 LUT      0.089537
    195 H222       88.9373   63.4362   34.6211 U2         2 LUT      0.127376
    196 H221       87.3767   63.0467   33.7805 U2         2 LUT      0.127376
    197 H203       73.8756   61.2863   41.3000 R7         2 LUT      0.087068
    198 H202       72.1827   61.7082   41.2264 R7         2 LUT      0.087068
    199 H201       73.4397   62.6165   40.3338 R7         2 LUT      0.087068
    200 H193       68.5680   60.6173   44.0339 R4         2 LUT      0.089716
    201 H192       69.8521   59.5392   44.5469 R4         2 LUT      0.089716
    202 H191       68.6202   59.5134   45.4768 R4         2 LUT      0.089716
    203 H183       66.5567   62.4333   46.7948 R1         2 LUT      0.094572
    204 H182       65.3433   62.8992   47.9628 R1         2 LUT      0.094572
    205 H181       66.6094   64.0505   47.5308 R1         2 LUT      0.094572
    206 H173       70.0449   61.1421   51.2468 T4         2 LUT      0.093752
    207 H172       68.9706   62.4325   51.4350 T4         2 LUT      0.093752
    208 H171       68.7012   60.9893   52.3042 T4         2 LUT      0.093752
    209 H163       68.1071   58.4771   49.6292 T4         2 LUT      0.093752
    210 H162       69.6436   59.4075   49.5768 T4         2 LUT      0.093752
    211 H161       68.8099   58.7517   51.1408 T4         2 LUT      0.093752
    212 HO3        66.5196   62.0974   52.9281 Q1         2 LUT      0.300121
    213 H8         69.6508   62.5634   47.5034 U7         2 LUT      0.080784
    214 H7         67.9794   60.0817   47.5350 U6         2 LUT      0.042190
    215 H42        65.2834   63.5123   49.8609 U5         2 LUT      0.145166
    216 H41        66.7110   63.7013   50.8908 U5         2 LUT      0.145166
    217 H35        77.0462   65.1550   42.6800 T3         2 LUT      0.077919
    218 H34        77.7374   63.8745   39.9471 T2         2 LUT      0.073626
    219 H32        79.7749   64.2436   39.0076 T1         2 LUT      0.092510
    220 H31        81.5955   66.4237   40.0719 U9         2 LUT      0.070048
    221 H30        81.6101   64.4912   37.6895 U8         2 LUT      0.085442
    222 H3         64.8473   61.3424   50.9337 U3         2 LUT     -0.031596
    223 H28        83.3981   64.4318   36.0844 U7         2 LUT      0.084728
    224 H27        85.3394   66.7236   35.8851 U6         2 LUT      0.087291
    225 H26        85.1812   64.2855   34.2127 Q6         2 LUT      0.075325
    226 H24        87.2244   66.3395   31.7472 Q5         2 LUT      0.094482
    227 H23        88.9538   65.6430   33.3359 U3         2 LUT     -0.024869
    228 H22        66.1320   60.0418   49.9865 U2         2 LUT      0.127376
    229 H21        66.4853   59.8487   51.5847 U2         2 LUT      0.127376
    230 H15        75.6348   63.1568   40.7355 T3         2 LUT      0.093200
    231 H14        74.7582   63.9866   43.5378 T2         2 LUT      0.068865
    232 H12        72.8479   63.3546   44.5805 T1         2 LUT      0.095507
    233 H11        70.9768   61.5693   42.9269 U9         2 LUT      0.068930
    234 H10        71.1697   62.9709   45.7595 U8         2 LUT      0.083911
    235 H1         88.6934   64.1763   31.1569 Q1         2 LUT      0.297311
@<TRIPOS>BOND
    1     6     1 1
    2     7     2 1
    3     8     3 1
    4     9     4 1
    5    11     4 1
    6    12     6 1
    7    13     9 1
    8    16     9 1
    9    25     5 1
   10    25    16 1
   11    26    10 1
   12    26    17 1
   13    27    18 1
   14    28    14 1
   15    28    19 1
   16    29    12 1
   17    30    13 1
   18    31    24 1
   19    32     1 1
   20    32    25 1
   21    33    21 1
   22    33    26 1
   23    34    22 1
   24    34    27 1
   25    35    23 1
   26    35    28 1
   27    36    12 1
   28    36    24 1
   29    37    13 1
   30    37    15 1
   31    38    31 1
   32    39    20 1
   33    39    32 1
   34    40     2 1
   35    40    33 1
   36    41     3 1
   37    41    34 1
   38    42     4 1
   39    42    35 1
   40    43    38 1
   41    44     5 1
   42    44    17 1
   43    44    39 1
   44    45    10 1
   45    45    18 1
   46    45    40 1
   47    46    19 1
   48    46    41 1
   49    47    14 1
   50    47    16 1
   51    47    42 1
   52    48    38 1
   53    49    48 1
   54    50    49 1
   55    51    50 1
   56    52    51 1
   57    53    51 1
   58    54    53 1
   59    55    54 1
   60    56    55 1
   61    57    56 1
   62    58    56 1
   63    59    58 1
   64    60    59 1
   65    61    60 1
   66    62    61 1
   67    63    61 1
   68    64    27 1
   69    64    46 1
   70    65     5 1
   71    65    10 1
   72    65    64 1
   73    65    14 1
   74    66    23 1
   75    67    23 1
   76    68    23 1
   77    69    22 1
   78    70    22 1
   79    71    22 1
   80    72    21 1
   81    73    21 1
   82    74    21 1
   83    75    20 1
   84    76    20 1
   85    77    20 1
   86    78    15 1
   87    79    15 1
   88    80    15 1
   89    81     8 1
   90    82     8 1
   91    83     8 1
   92    84     7 1
   93    85     7 1
   94    86     6 1
   95    87     6 1
   96    88     3 1
   97    89     3 1
   98    90     1 1
   99    91     1 1
  100    92    63 1
  101    93    63 1
  102    94    63 1
  103    95    62 1
  104    96    62 1
  105    97    62 1
  106    98    60 1
  107    99    60 1
  108   100    59 1
  109   101    59 1
  110   102    58 1
  111   103    58 1
  112   104    57 1
  113   105    57 1
  114   106    57 1
  115   107    55 1
  116   108    55 1
  117   109    54 1
  118   110    54 1
  119   111    53 1
  120   112    53 1
  121   113    19 1
  122   114    18 1
  123   115    17 1
  124   116     9 1
  125   117     2 1
  126   118    52 1
  127   119    52 1
  128   120    52 1
  129   121    51 1
  130   122    50 1
  131   123    50 1
  132   124    49 1
  133   125    49 1
  134   126    48 1
  135   127    48 1
  136   128    43 1
  137   129    43 1
  138   130    43 1
  139   131    39 1
  140   132    32 1
  141   133    31 1
  142   134    61 1
  143   135    56 1
  144   136    24 1
  145   137    24 1
  146   139   138 1
  147   140   139 1
  148   141   140 1
  149   142   140 1
  150   143   142 1
  151   144   138 1
  152   144   143 1
  153   145   144 1
  154   146   145 1
  155   147   146 1
  156   148   147 1
  157   149   148 1
  158   150   149 1
  159   151   150 1
  160   152   151 1
  161   153   152 1
  162   154   138 1
  163   155   138 1
  164   156   143 1
  165   157   147 1
  166   158   151 1
  167   160   159 1
  168   161   160 1
  169   162   161 1
  170   163   161 1
  171   164   163 1
  172   165   159 1
  173   165   164 1
  174   166   165 1
  175   167   166 1
  176   168   167 1
  177   169   168 1
  178   170   169 1
  179   171   170 1
  180   172   171 1
  181   173   172 1
  182   174   153 1
  183   174   173 1
  184   175   159 1
  185   176   159 1
  186   177   164 1
  187   178   168 1
  188   179   172 1
  189   180   179 1
  190   181   179 1
  191   182   179 1
  192   183   178 1
  193   184   178 1
  194   185   178 1
  195   186   177 1
  196   187   177 1
  197   188   177 1
  198   189   176 1
  199   190   176 1
  200   191   176 1
  201   192   175 1
  202   193   175 1
  203   194   175 1
  204   195   160 1
  205   196   160 1
  206   197   158 1
  207   198   158 1
  208   199   158 1
  209   200   157 1
  210   201   157 1
  211   202   157 1
  212   203   156 1
  213   204   156 1
  214   205   156 1
  215   206   155 1
  216   207   155 1
  217   208   155 1
  218   209   154 1
  219   210   154 1
  220   211   154 1
  221   212   141 1
  222   213   146 1
  223   214   145 1
  224   215   142 1
  225   216   142 1
  226   217   174 1
  227   218   173 1
  228   219   171 1
  229   220   170 1
  230   221   169 1
  231   222   140 1
  232   223   167 1
  233   224   166 1
  234   225   165 1
  235   226   163 1
  236   227   161 1
  237   228   139 1
  238   229   139 1
  239   230   153 1
  240   231   152 1
  241   232   150 1
  242   233   149 1
  243   234   148 1
  244   235   162 1
  245   65    153 1
  246   65    174 1
@<TRIPOS>SUBSTRUCTURE
      1 CLA               1 ****               0 ****  **** 
      2 LUT             138 ****               0 ****  **** 
