@<TRIPOS>MOLECULE
Cpptraj generated mol2 file.
  235   246     2     0     0
SMALL
USER_CHARGES


@<TRIPOS>ATOM
      1 CAA        78.5811   59.2544   34.3211 a2         1 CLA     -0.055900
      2 CAB        78.9935   62.6985   43.1497 c8         1 CLA     -0.148500
      3 CAC        71.7104   58.9564   42.6021 a2         1 CLA     -0.012600
      4 CAD        74.4268   56.4866   35.2972 ck         1 CLA      0.398800
      5 NA         77.6061   59.2318   37.6818 ns         1 CLA     -0.225500
      6 CBA        79.8106   59.1211   33.3748 a2         1 CLA     -0.135000
      7 CBB        80.1023   62.3549   43.8257 c0         1 CLA     -0.395200
      8 CBC        71.8684   57.5584   43.0986 a3         1 CLA     -0.037700
      9 CBD        75.9566   56.9636   35.0811 a1         1 CLA     -0.053900
     10 NB         77.6153   60.8886   40.1327 nm         1 CLA     -0.295700
     11 OBD        73.7542   55.8305   34.4606 o2         1 CLA     -0.494600
     12 CGA        80.2119   57.7196   32.9067 c4         1 CLA      0.827000
     13 CGD        76.8708   55.8622   34.7466 c4         1 CLA      0.655300
     14 ND         74.9208   58.2930   38.2782 nm         1 CLA     -0.291600
     15 CED        77.1144   53.5124   35.0411 a3         1 CLA      0.005400
     16 CHA        76.2748   57.7960   36.2692 cs         1 CLA     -0.123800
     17 CHB        79.4938   60.4746   38.6625 aa         1 CLA     -0.291900
     18 CHC        76.2387   61.2273   42.1097 aa         1 CLA     -0.090400
     19 CHD        73.0481   58.3692   39.7698 aa         1 CLA     -0.052000
     20 CMA        81.0022   58.5395   37.0044 a3         1 CLA     -0.230700
     21 CMB        80.9718   62.3897   40.6297 a3         1 CLA     -0.180800
     22 CMC        73.7932   60.7901   44.2376 a3         1 CLA     -0.134000
     23 CMD        71.7138   56.5021   37.4009 a3         1 CLA     -0.141100
     24 C1         81.2982   55.7474   33.6046 a2         1 CLA      0.023000
     25 C1A        77.4435   58.4321   36.5355 ac         1 CLA     -0.015100
     26 C1B        78.9472   61.0283   39.8031 cr         1 CLA      0.054700
     27 C1C        75.0355   60.5512   41.8980 cn         1 CLA     -0.005600
     28 C1D        73.5981   57.9092   38.5887 ap         1 CLA     -0.047300
     29 O1A        79.9917   57.1934   31.8196 o2         1 CLA     -0.610800
     30 O1D        77.7337   55.8149   33.8048 o2         1 CLA     -0.558200
     31 C2         81.6864   55.0984   34.8530 c8         1 CLA     -0.325100
     32 C2A        78.7157   58.5353   35.6674 a1         1 CLA      0.098600
     33 C2B        79.5769   61.9046   40.7416 cb         1 CLA      0.088500
     34 C2C        73.8551   60.3750   42.7545 cb         1 CLA      0.053700
     35 C2D        73.1094   57.0451   37.5444 cb         1 CLA      0.058900
     36 O2A        80.9067   57.1337   33.8757 o1         1 CLA     -0.437200
     37 O2D        76.6581   54.8045   35.5740 o1         1 CLA     -0.357600
     38 C3         82.3192   53.9459   35.0568 c5         1 CLA      0.031200
     39 C3A        79.7577   59.3248   36.5293 a1         1 CLA      0.166800
     40 C3B        78.6961   62.1016   41.7935 cb         1 CLA      0.035000
     41 C3C        72.9504   59.5561   42.0405 cb         1 CLA     -0.089900
     42 C3D        74.1214   56.9200   36.6079 cb         1 CLA     -0.035900
     43 C4         81.5239   52.6973   35.4410 a3         1 CLA     -0.053300
     44 C4A        78.9462   59.6592   37.7184 ac         1 CLA      0.001800
     45 C4B        77.4333   61.4215   41.3895 cn         1 CLA     -0.020900
     46 C4C        73.5841   59.1767   40.7465 cr         1 CLA     -0.044400
     47 C4D        75.1839   57.7090   37.0881 c6         1 CLA     -0.046000
     48 C5         83.8569   53.8440   34.9354 a2         1 CLA     -0.070400
     49 C6         84.8159   54.8865   35.6331 a2         1 CLA      0.043900
     50 C7         84.5576   55.1749   37.1548 a2         1 CLA     -0.150000
     51 C8         85.5216   56.2081   37.8426 a1         1 CLA      0.064200
     52 C9         87.0299   55.8998   37.6384 a3         1 CLA     -0.259300
     53 C10        85.1025   56.4962   39.2954 a2         1 CLA     -0.071900
     54 C11        83.6679   57.0652   39.5763 a2         1 CLA      0.014500
     55 C12        83.5570   57.3239   41.1013 a2         1 CLA     -0.112100
     56 C13        82.1335   57.4367   41.7510 a1         1 CLA      0.089200
     57 C14        81.4162   58.7444   41.2766 a3         1 CLA     -0.239100
     58 C15        82.2934   57.3514   43.3557 a2         1 CLA     -0.102200
     59 C16        83.0495   58.5437   44.1600 a2         1 CLA      0.023900
     60 C17        83.1151   58.0723   45.6641 a2         1 CLA     -0.105700
     61 C18        84.0821   58.9224   46.5384 a1         1 CLA      0.206800
     62 C19        83.6685   60.4546   46.6183 a3         1 CLA     -0.280100
     63 C20        84.2122   58.2671   47.8903 a3         1 CLA     -0.280100
     64 NC         74.8103   59.8527   40.7244 nx         1 CLA     -0.309200
     65 MG         76.1827   59.6792   39.1651 mg         1 CLA      0.895000
     66 HMD3       71.0783   57.2461   36.9930 dc         1 CLA      0.064300
     67 HMD2       71.8068   55.5554   36.8787 dc         1 CLA      0.064300
     68 HMD1       71.2732   56.2461   38.3271 dc         1 CLA      0.064300
     69 HMC3       74.4304   60.2838   44.9677 dc         1 CLA      0.052100
     70 HMC2       73.9891   61.8469   44.1777 dc         1 CLA      0.052100
     71 HMC1       72.7477   60.6638   44.5938 dc         1 CLA      0.052100
     72 HMB3       81.0266   63.1208   39.7793 dc         1 CLA      0.063600
     73 HMB2       81.2111   62.9339   41.5642 dc         1 CLA      0.063600
     74 HMB1       81.6794   61.6010   40.4482 dc         1 CLA      0.063600
     75 HMA3       80.7579   57.7117   37.6312 dc         1 CLA      0.058300
     76 HMA2       81.5776   58.2539   36.1632 dc         1 CLA      0.058300
     77 HMA1       81.6515   59.1877   37.6030 dc         1 CLA      0.058300
     78 HED3       76.6990   53.3144   34.0635 dc         1 CLA      0.079300
     79 HED2       78.2399   53.4053   34.9661 dc         1 CLA      0.079300
     80 HED1       76.7097   52.6956   35.6071 dc         1 CLA      0.079300
     81 HBC3       72.0300   56.8085   42.2830 dc         1 CLA      0.016300
     82 HBC2       72.6816   57.5802   43.8146 dc         1 CLA      0.016300
     83 HBC1       70.9601   57.2615   43.6144 dc         1 CLA      0.016300
     84 HBB2       80.1916   62.5928   44.8774 da         1 CLA      0.183000
     85 HBB1       80.8878   61.6916   43.4222 da         1 CLA      0.183000
     86 HBA2       79.7472   59.8728   32.6012 dc         1 CLA      0.029400
     87 HBA1       80.6648   59.4626   33.9582 dc         1 CLA      0.029400
     88 HAC2       71.2669   59.5274   43.3695 dc         1 CLA      0.029300
     89 HAC1       71.0243   58.9997   41.6988 dc         1 CLA      0.029300
     90 HAA2       77.8287   58.8191   33.6929 dc         1 CLA      0.028700
     91 HAA1       78.4783   60.2795   34.4815 dc         1 CLA      0.028700
     92 H203       84.5411   57.2366   47.8549 dc         1 CLA      0.065600
     93 H202       85.1391   58.7079   48.3376 dc         1 CLA      0.065600
     94 H201       83.2781   58.3223   48.5212 dc         1 CLA      0.065600
     95 H193       82.6272   60.5747   46.7913 dc         1 CLA      0.065600
     96 H192       84.1292   61.1279   47.3163 dc         1 CLA      0.065600
     97 H191       83.9349   60.9392   45.7596 dc         1 CLA      0.065600
     98 H172       82.1079   58.0003   46.1688 dc         1 CLA      0.027600
     99 H171       83.4720   57.0730   45.5802 dc         1 CLA      0.027600
    100 H162       84.0066   58.6651   43.6801 dc         1 CLA      0.002900
    101 H161       82.5806   59.5324   44.1559 dc         1 CLA      0.002900
    102 H152       81.2897   57.2645   43.6556 dc         1 CLA      0.029100
    103 H151       82.7651   56.3554   43.5727 dc         1 CLA      0.029100
    104 H143       82.1504   59.5684   41.4700 dc         1 CLA      0.063600
    105 H142       81.0094   58.6753   40.2584 dc         1 CLA      0.063600
    106 H141       80.5183   58.7974   41.8477 dc         1 CLA      0.063600
    107 H122       84.0933   56.5729   41.7002 dc         1 CLA      0.032500
    108 H121       84.0460   58.2460   41.3001 dc         1 CLA      0.032500
    109 H112       83.4885   57.9393   39.0155 dc         1 CLA      0.006600
    110 H111       82.9848   56.3649   39.1157 dc         1 CLA      0.006600
    111 H102       85.2673   55.5238   39.7947 dc         1 CLA      0.024100
    112 H101       85.8227   57.2130   39.7421 dc         1 CLA      0.024100
    113 HHD        71.9976   58.1134   40.0902 da         1 CLA      0.174300
    114 HHC        76.2710   61.7529   43.0614 da         1 CLA      0.136800
    115 HHB        80.5069   60.7340   38.4751 da         1 CLA      0.138300
    116 HBD        75.8919   57.5748   34.2066 dc         1 CLA      0.107700
    117 HAB        78.2717   63.3464   43.6792 da         1 CLA      0.155200
    118 H93        87.2940   55.9304   36.5554 dc         1 CLA      0.069500
    119 H92        87.6959   56.5551   38.2468 dc         1 CLA      0.069500
    120 H91        87.2025   54.9549   38.1325 dc         1 CLA      0.069500
    121 H8         85.4584   57.1268   37.2529 dc         1 CLA      0.029300
    122 H72        83.5931   55.6366   37.3088 dc         1 CLA      0.044400
    123 H71        84.5127   54.2803   37.7519 dc         1 CLA      0.044400
    124 H62        85.7913   54.4103   35.5095 dc         1 CLA      0.015600
    125 H61        84.6111   55.8164   35.0729 dc         1 CLA      0.015600
    126 H52        84.1932   52.8776   35.3352 dc         1 CLA      0.033200
    127 H51        84.0108   53.7871   33.8510 dc         1 CLA      0.033200
    128 H43        80.4255   52.9848   35.5990 dc         1 CLA      0.037000
    129 H42        81.6230   51.9453   34.6961 dc         1 CLA      0.037000
    130 H41        81.8202   52.1885   36.3966 dc         1 CLA      0.037000
    131 H3A        80.0875   60.2917   36.0461 dc         1 CLA      0.041100
    132 H2A        79.0247   57.4916   35.4359 dc         1 CLA      0.083100
    133 H2         81.5932   55.7898   35.6407 da         1 CLA      0.180900
    134 H18        85.1280   59.0160   46.1727 dc         1 CLA     -0.003900
    135 H13        81.4995   56.6243   41.4380 dc         1 CLA      0.019700
    136 H12        80.4038   55.2112   33.1830 dc         1 CLA      0.120400
    137 H11        82.0798   55.7875   32.8877 dc         1 CLA      0.120400
    138 C1         68.2481   62.3833   50.3674 Z1         2 LUT      0.509236
    139 C2         66.8974   61.9802   51.0484 Z2         2 LUT     -0.434695
    140 C3         65.9771   63.0931   51.4837 Z3         2 LUT      0.437453
    141 O3         66.2242   63.4849   52.8449 S1         2 LUT     -0.547129
    142 C4         66.0336   64.3178   50.5873 Z4         2 LUT     -0.468603
    143 C5         66.7864   64.1976   49.3445 Z5         2 LUT      0.279246
    144 C6         67.8281   63.3155   49.2287 Z6         2 LUT     -0.305473
    145 C7         68.2340   62.9351   47.8382 Z7         2 LUT      0.069402
    146 C8         69.1779   63.5930   47.0640 Z8         2 LUT     -0.191631
    147 C9         69.7097   63.2424   45.7273 Z9         2 LUT      0.196698
    148 C10        70.6603   63.9950   45.1332 Y1         2 LUT     -0.208611
    149 C11        71.3315   63.7142   43.8906 Y2         2 LUT      0.030784
    150 C12        72.5510   64.2369   43.5466 Y3         2 LUT     -0.220316
    151 C13        73.4056   64.0664   42.3623 Y4         2 LUT      0.215937
    152 C14        74.6575   64.5921   42.4241 Y5         2 LUT     -0.185793
    153 C15        75.7228   64.4482   41.4833 Y6         2 LUT     -0.057835
    154 C16        68.9043   61.0419   50.1021 Y7         2 LUT     -0.405615
    155 C17        69.0507   63.0319   51.4662 Y7         2 LUT     -0.405615
    156 C18        66.3122   64.9392   48.1484 Y9         2 LUT     -0.369639
    157 C19        69.0648   62.1308   44.9999 W1         2 LUT     -0.333362
    158 C20        72.8436   63.4782   41.0306 W2         2 LUT     -0.323439
    159 C21        87.0767   65.4288   34.9702 Z1         2 LUT      0.406104
    160 C22        87.6967   65.0990   33.6065 Z2         2 LUT     -0.404965
    161 C23        88.0849   66.2269   32.6571 Z3         2 LUT      0.391255
    162 O23        88.2749   65.6484   31.4085 S1         2 LUT     -0.528210
    163 C24        87.0396   67.2755   32.6381 W6         2 LUT     -0.258361
    164 C25        85.9645   67.2183   33.3803 Z5         2 LUT      0.133546
    165 C26        85.8015   66.1964   34.5604 W8         2 LUT     -0.147008
    166 C27        85.0399   66.8479   35.7762 Z7         2 LUT      0.023843
    167 C28        83.9447   66.3269   36.4255 Z8         2 LUT     -0.216987
    168 C29        83.3135   67.0496   37.5431 Z9         2 LUT      0.206524
    169 C30        82.2308   66.4339   38.1718 Y1         2 LUT     -0.215556
    170 C31        81.3560   66.6077   39.3121 Y2         2 LUT      0.025142
    171 C32        80.2126   65.8547   39.6264 Y3         2 LUT     -0.212209
    172 C33        79.1747   66.0124   40.7166 Y4         2 LUT      0.240937
    173 C34        78.0433   65.2029   40.7677 Y5         2 LUT     -0.218862
    174 C35        76.9101   65.1519   41.6485 Y6         2 LUT     -0.023547
    175 C36        88.1065   66.2987   35.7069 Y7         2 LUT     -0.393485
    176 C37        86.8005   63.9989   35.6021 Y7         2 LUT     -0.393485
    177 C38        84.7870   68.1253   33.0160 Y9         2 LUT     -0.387526
    178 C39        83.9470   68.2780   38.0999 W1         2 LUT     -0.322618
    179 C40        79.6953   66.5796   41.9888 W2         2 LUT     -0.358472
    180 H403       79.9440   67.6490   41.8770 R7         2 LUT      0.097720
    181 H402       79.0418   66.5005   42.8291 R7         2 LUT      0.097720
    182 H401       80.6277   65.9849   42.1554 R7         2 LUT      0.097720
    183 H393       84.9721   68.1238   38.3326 R4         2 LUT      0.082505
    184 H392       84.0030   69.0939   37.3593 R4         2 LUT      0.082505
    185 H391       83.4713   68.6010   38.9992 R4         2 LUT      0.082505
    186 H383       83.8769   67.7524   33.5250 R1         2 LUT      0.104030
    187 H382       84.9209   69.2298   33.0896 R1         2 LUT      0.104030
    188 H381       84.5954   68.0550   31.9394 R1         2 LUT      0.104030
    189 H373       86.3200   64.0616   36.5244 T4         2 LUT      0.089537
    190 H372       86.0788   63.4782   34.9160 T4         2 LUT      0.089537
    191 H371       87.7387   63.3301   35.7060 T4         2 LUT      0.089537
    192 H363       87.8498   66.5806   36.7650 T4         2 LUT      0.089537
    193 H362       89.0378   65.7323   35.8635 T4         2 LUT      0.089537
    194 H361       88.2889   67.1962   35.1235 T4         2 LUT      0.089537
    195 H222       88.6696   64.6032   33.8129 U2         2 LUT      0.127376
    196 H221       87.1090   64.4090   33.0657 U2         2 LUT      0.127376
    197 H203       72.4475   62.4886   41.2254 R7         2 LUT      0.087068
    198 H202       71.9430   64.0410   40.6502 R7         2 LUT      0.087068
    199 H201       73.5889   63.5258   40.2521 R7         2 LUT      0.087068
    200 H193       69.7130   61.5818   44.2864 R4         2 LUT      0.089716
    201 H192       68.5917   61.3573   45.6196 R4         2 LUT      0.089716
    202 H191       68.3049   62.4984   44.3905 R4         2 LUT      0.089716
    203 H183       65.3248   65.3676   48.4204 R1         2 LUT      0.094572
    204 H182       66.8955   65.8581   47.9823 R1         2 LUT      0.094572
    205 H181       66.2578   64.3928   47.1988 R1         2 LUT      0.094572
    206 H173       68.5668   63.9679   51.6704 T4         2 LUT      0.093752
    207 H172       69.1401   62.5289   52.4276 T4         2 LUT      0.093752
    208 H171       70.0796   63.2509   51.1836 T4         2 LUT      0.093752
    209 H163       69.7035   61.2686   49.4541 T4         2 LUT      0.093752
    210 H162       69.3420   60.5808   50.9990 T4         2 LUT      0.093752
    211 H161       68.2300   60.3400   49.6436 T4         2 LUT      0.093752
    212 HO3        65.8843   62.8911   53.5236 Q1         2 LUT      0.300121
    213 H8         69.6220   64.5206   47.4352 U7         2 LUT      0.080784
    214 H7         67.9007   61.9206   47.5137 U6         2 LUT      0.042190
    215 H42        64.9596   64.4921   50.4252 U5         2 LUT      0.145166
    216 H41        66.3162   65.2698   51.0788 U5         2 LUT      0.145166
    217 H35        76.9533   65.7165   42.5562 T3         2 LUT      0.077919
    218 H34        77.9031   64.5599   39.8744 T2         2 LUT      0.073626
    219 H32        80.0146   65.0573   38.9979 T1         2 LUT      0.092510
    220 H31        81.5036   67.5665   39.7913 U9         2 LUT      0.070048
    221 H30        81.9415   65.5445   37.6863 U8         2 LUT      0.085442
    222 H3         64.8906   62.8250   51.4391 U3         2 LUT     -0.031596
    223 H28        83.6857   65.3380   36.2315 U7         2 LUT      0.084728
    224 H27        85.4352   67.8310   36.1551 U6         2 LUT      0.087291
    225 H26        85.0870   65.4924   34.1214 Q6         2 LUT      0.075325
    226 H24        87.1301   67.9541   31.8103 Q5         2 LUT      0.094482
    227 H23        88.9551   66.6609   33.1536 U3         2 LUT     -0.024869
    228 H22        66.2731   61.3718   50.3829 U2         2 LUT      0.127376
    229 H21        67.0198   61.2394   51.8088 U2         2 LUT      0.127376
    230 H15        75.6789   63.8647   40.5691 T3         2 LUT      0.093200
    231 H14        74.9712   65.1669   43.2872 T2         2 LUT      0.068865
    232 H12        72.9357   64.8968   44.3208 T1         2 LUT      0.095507
    233 H11        70.9196   62.9956   43.1781 U9         2 LUT      0.068930
    234 H10        70.9643   64.8167   45.7437 U8         2 LUT      0.083911
    235 H1         88.9908   66.0906   30.9499 Q1         2 LUT      0.297311
@<TRIPOS>BOND
    1     6     1 1
    2     7     2 1
    3     8     3 1
    4     9     4 1
    5    11     4 1
    6    12     6 1
    7    13     9 1
    8    16     9 1
    9    25     5 1
   10    25    16 1
   11    26    10 1
   12    26    17 1
   13    27    18 1
   14    28    14 1
   15    28    19 1
   16    29    12 1
   17    30    13 1
   18    31    24 1
   19    32     1 1
   20    32    25 1
   21    33    21 1
   22    33    26 1
   23    34    22 1
   24    34    27 1
   25    35    23 1
   26    35    28 1
   27    36    12 1
   28    36    24 1
   29    37    13 1
   30    37    15 1
   31    38    31 1
   32    39    20 1
   33    39    32 1
   34    40     2 1
   35    40    33 1
   36    41     3 1
   37    41    34 1
   38    42     4 1
   39    42    35 1
   40    43    38 1
   41    44     5 1
   42    44    17 1
   43    44    39 1
   44    45    10 1
   45    45    18 1
   46    45    40 1
   47    46    19 1
   48    46    41 1
   49    47    14 1
   50    47    16 1
   51    47    42 1
   52    48    38 1
   53    49    48 1
   54    50    49 1
   55    51    50 1
   56    52    51 1
   57    53    51 1
   58    54    53 1
   59    55    54 1
   60    56    55 1
   61    57    56 1
   62    58    56 1
   63    59    58 1
   64    60    59 1
   65    61    60 1
   66    62    61 1
   67    63    61 1
   68    64    27 1
   69    64    46 1
   70    65     5 1
   71    65    10 1
   72    65    64 1
   73    65    14 1
   74    66    23 1
   75    67    23 1
   76    68    23 1
   77    69    22 1
   78    70    22 1
   79    71    22 1
   80    72    21 1
   81    73    21 1
   82    74    21 1
   83    75    20 1
   84    76    20 1
   85    77    20 1
   86    78    15 1
   87    79    15 1
   88    80    15 1
   89    81     8 1
   90    82     8 1
   91    83     8 1
   92    84     7 1
   93    85     7 1
   94    86     6 1
   95    87     6 1
   96    88     3 1
   97    89     3 1
   98    90     1 1
   99    91     1 1
  100    92    63 1
  101    93    63 1
  102    94    63 1
  103    95    62 1
  104    96    62 1
  105    97    62 1
  106    98    60 1
  107    99    60 1
  108   100    59 1
  109   101    59 1
  110   102    58 1
  111   103    58 1
  112   104    57 1
  113   105    57 1
  114   106    57 1
  115   107    55 1
  116   108    55 1
  117   109    54 1
  118   110    54 1
  119   111    53 1
  120   112    53 1
  121   113    19 1
  122   114    18 1
  123   115    17 1
  124   116     9 1
  125   117     2 1
  126   118    52 1
  127   119    52 1
  128   120    52 1
  129   121    51 1
  130   122    50 1
  131   123    50 1
  132   124    49 1
  133   125    49 1
  134   126    48 1
  135   127    48 1
  136   128    43 1
  137   129    43 1
  138   130    43 1
  139   131    39 1
  140   132    32 1
  141   133    31 1
  142   134    61 1
  143   135    56 1
  144   136    24 1
  145   137    24 1
  146   139   138 1
  147   140   139 1
  148   141   140 1
  149   142   140 1
  150   143   142 1
  151   144   138 1
  152   144   143 1
  153   145   144 1
  154   146   145 1
  155   147   146 1
  156   148   147 1
  157   149   148 1
  158   150   149 1
  159   151   150 1
  160   152   151 1
  161   153   152 1
  162   154   138 1
  163   155   138 1
  164   156   143 1
  165   157   147 1
  166   158   151 1
  167   160   159 1
  168   161   160 1
  169   162   161 1
  170   163   161 1
  171   164   163 1
  172   165   159 1
  173   165   164 1
  174   166   165 1
  175   167   166 1
  176   168   167 1
  177   169   168 1
  178   170   169 1
  179   171   170 1
  180   172   171 1
  181   173   172 1
  182   174   153 1
  183   174   173 1
  184   175   159 1
  185   176   159 1
  186   177   164 1
  187   178   168 1
  188   179   172 1
  189   180   179 1
  190   181   179 1
  191   182   179 1
  192   183   178 1
  193   184   178 1
  194   185   178 1
  195   186   177 1
  196   187   177 1
  197   188   177 1
  198   189   176 1
  199   190   176 1
  200   191   176 1
  201   192   175 1
  202   193   175 1
  203   194   175 1
  204   195   160 1
  205   196   160 1
  206   197   158 1
  207   198   158 1
  208   199   158 1
  209   200   157 1
  210   201   157 1
  211   202   157 1
  212   203   156 1
  213   204   156 1
  214   205   156 1
  215   206   155 1
  216   207   155 1
  217   208   155 1
  218   209   154 1
  219   210   154 1
  220   211   154 1
  221   212   141 1
  222   213   146 1
  223   214   145 1
  224   215   142 1
  225   216   142 1
  226   217   174 1
  227   218   173 1
  228   219   171 1
  229   220   170 1
  230   221   169 1
  231   222   140 1
  232   223   167 1
  233   224   166 1
  234   225   165 1
  235   226   163 1
  236   227   161 1
  237   228   139 1
  238   229   139 1
  239   230   153 1
  240   231   152 1
  241   232   150 1
  242   233   149 1
  243   234   148 1
  244   235   162 1
  245   65    153 1
  246   65    174 1
@<TRIPOS>SUBSTRUCTURE
      1 CLA               1 ****               0 ****  **** 
      2 LUT             138 ****               0 ****  **** 
