@<TRIPOS>MOLECULE
Cpptraj generated mol2 file.
  235   246     2     0     0
SMALL
USER_CHARGES


@<TRIPOS>ATOM
      1 CAA        80.0183   58.1928   33.8044 a2         1 CLA     -0.055900
      2 CAB        80.5825   62.4888   42.3118 c8         1 CLA     -0.148500
      3 CAC        73.5165   58.3962   42.9090 a2         1 CLA     -0.012600
      4 CAD        75.8771   55.6315   35.2753 ck         1 CLA      0.398800
      5 NA         79.1456   58.6074   37.1771 ns         1 CLA     -0.225500
      6 CBA        81.2407   58.0324   32.9174 a2         1 CLA     -0.135000
      7 CBB        80.2677   62.0551   43.6187 c0         1 CLA     -0.395200
      8 CBC        73.8066   56.9754   43.4426 a3         1 CLA     -0.037700
      9 CBD        77.3156   56.1755   34.8137 a1         1 CLA     -0.053900
     10 NB         79.1392   60.2984   39.6773 nm         1 CLA     -0.295700
     11 OBD        75.2638   54.7184   34.7469 o2         1 CLA     -0.494600
     12 CGA        81.7301   56.6000   32.5196 c4         1 CLA      0.827000
     13 CGD        78.2690   55.0470   34.6204 c4         1 CLA      0.655300
     14 ND         76.3549   57.8976   37.9463 nm         1 CLA     -0.291600
     15 CED        78.9947   52.9519   35.5373 a3         1 CLA      0.005400
     16 CHA        77.7242   57.0698   35.9966 cs         1 CLA     -0.123800
     17 CHB        80.8828   60.1687   37.9289 aa         1 CLA     -0.291900
     18 CHC        77.8745   60.6655   41.7007 aa         1 CLA     -0.090400
     19 CHD        74.6178   57.8281   39.6755 aa         1 CLA     -0.052000
     20 CMA        82.4741   57.7476   36.6118 a3         1 CLA     -0.230700
     21 CMB        82.2975   62.3233   39.7444 a3         1 CLA     -0.180800
     22 CMC        75.9219   60.5896   43.8774 a3         1 CLA     -0.134000
     23 CMD        73.3678   55.7057   37.5379 a3         1 CLA     -0.141100
     24 C1         82.8782   54.6951   33.3745 a2         1 CLA      0.023000
     25 C1A        78.9821   57.7246   36.1452 ac         1 CLA     -0.015100
     26 C1B        80.3010   60.7594   39.0892 cr         1 CLA      0.054700
     27 C1C        76.6542   60.0476   41.5368 cn         1 CLA     -0.005600
     28 C1D        75.1794   57.3550   38.4683 ap         1 CLA     -0.047300
     29 O1A        81.7917   56.1479   31.3683 o2         1 CLA     -0.610800
     30 O1D        79.2024   54.9692   33.8659 o2         1 CLA     -0.558200
     31 C2         83.3541   54.1551   34.6394 c8         1 CLA     -0.325100
     32 C2A        80.2651   57.6735   35.2573 a1         1 CLA      0.098600
     33 C2B        80.9850   61.6851   39.9929 cb         1 CLA      0.088500
     34 C2C        75.6652   59.9461   42.5817 cb         1 CLA      0.053700
     35 C2D        74.6009   56.4743   37.3779 cb         1 CLA      0.058900
     36 O2A        82.1607   55.9655   33.6589 o1         1 CLA     -0.437200
     37 O2D        77.9985   54.0148   35.4821 o1         1 CLA     -0.357600
     38 C3         84.5665   53.7348   34.9667 c5         1 CLA      0.031200
     39 C3A        81.2415   58.5376   36.0742 a1         1 CLA      0.166800
     40 C3B        80.2315   61.7150   41.1484 cb         1 CLA      0.035000
     41 C3C        74.6286   59.0477   42.0661 cb         1 CLA     -0.089900
     42 C3D        75.5883   56.3108   36.4475 cb         1 CLA     -0.035900
     43 C4         85.0955   52.3071   34.7176 a3         1 CLA     -0.053300
     44 C4A        80.3875   59.1594   37.1097 ac         1 CLA      0.001800
     45 C4B        79.0605   60.8639   40.9422 cn         1 CLA     -0.020900
     46 C4C        75.0956   58.7504   40.6588 cr         1 CLA     -0.044400
     47 C4D        76.6159   57.2041   36.8137 c6         1 CLA     -0.046000
     48 C5         85.5911   54.8289   35.4208 a2         1 CLA     -0.070400
     49 C6         85.7757   55.0474   36.9143 a2         1 CLA      0.043900
     50 C7         86.8068   56.2056   37.1788 a2         1 CLA     -0.150000
     51 C8         86.8566   56.8330   38.6127 a1         1 CLA      0.064200
     52 C9         85.6146   57.7743   38.7824 a3         1 CLA     -0.259300
     53 C10        88.1751   57.5874   38.7746 a2         1 CLA     -0.071900
     54 C11        88.4288   58.0923   40.2269 a2         1 CLA      0.014500
     55 C12        88.4963   56.9856   41.3119 a2         1 CLA     -0.112100
     56 C13        89.0538   57.5073   42.7135 a1         1 CLA      0.089200
     57 C14        88.9914   56.2425   43.6853 a3         1 CLA     -0.239100
     58 C15        88.3194   58.7789   43.3651 a2         1 CLA     -0.102200
     59 C16        86.8905   58.4674   43.9524 a2         1 CLA      0.023900
     60 C17        86.2557   59.7237   44.5371 a2         1 CLA     -0.105700
     61 C18        84.7146   59.6642   44.7946 a1         1 CLA      0.206800
     62 C19        84.3084   58.6365   45.9038 a3         1 CLA     -0.280100
     63 C20        84.1757   61.0325   45.0337 a3         1 CLA     -0.280100
     64 NC         76.2936   59.3268   40.4793 nx         1 CLA     -0.309200
     65 MG         77.6225   59.1378   38.6891 mg         1 CLA      0.895000
     66 HMD3       72.4530   56.3919   37.2927 dc         1 CLA      0.064300
     67 HMD2       73.5416   54.9589   36.7914 dc         1 CLA      0.064300
     68 HMD1       73.3182   55.2331   38.5404 dc         1 CLA      0.064300
     69 HMC3       76.5961   60.0446   44.5482 dc         1 CLA      0.052100
     70 HMC2       76.3171   61.6162   43.8004 dc         1 CLA      0.052100
     71 HMC1       74.9410   60.6455   44.3226 dc         1 CLA      0.052100
     72 HMB3       82.4329   63.2366   40.3097 dc         1 CLA      0.063600
     73 HMB2       83.1673   61.6708   39.7072 dc         1 CLA      0.063600
     74 HMB1       82.2310   62.7327   38.7495 dc         1 CLA      0.063600
     75 HMA3       83.1871   57.3143   35.8707 dc         1 CLA      0.058300
     76 HMA2       83.0165   58.3892   37.2442 dc         1 CLA      0.058300
     77 HMA1       82.0542   56.9081   37.1775 dc         1 CLA      0.058300
     78 HED3       78.8001   52.1714   34.7511 dc         1 CLA      0.079300
     79 HED2       80.0639   53.1859   35.3904 dc         1 CLA      0.079300
     80 HED1       78.8022   52.5546   36.5670 dc         1 CLA      0.079300
     81 HBC3       74.8534   56.9597   43.8208 dc         1 CLA      0.016300
     82 HBC2       73.0219   56.7122   44.1652 dc         1 CLA      0.016300
     83 HBC1       73.7407   56.3055   42.6147 dc         1 CLA      0.016300
     84 HBB2       80.4375   62.7952   44.4155 da         1 CLA      0.183000
     85 HBB1       79.7769   61.0976   43.9108 da         1 CLA      0.183000
     86 HBA2       81.0489   58.5463   31.9776 dc         1 CLA      0.029400
     87 HBA1       82.1083   58.5690   33.4165 dc         1 CLA      0.029400
     88 HAC2       73.3215   59.0117   43.8413 dc         1 CLA      0.029300
     89 HAC1       72.5385   58.3638   42.3335 dc         1 CLA      0.029300
     90 HAA2       79.1890   57.6319   33.4175 dc         1 CLA      0.028700
     91 HAA1       79.8152   59.2570   33.9195 dc         1 CLA      0.028700
     92 H203       84.4740   61.6826   44.1914 dc         1 CLA      0.065600
     93 H202       83.0559   60.9715   45.0256 dc         1 CLA      0.065600
     94 H201       84.4775   61.5964   45.8994 dc         1 CLA      0.065600
     95 H193       84.3984   59.1023   46.8377 dc         1 CLA      0.065600
     96 H192       83.2858   58.3471   45.7526 dc         1 CLA      0.065600
     97 H191       84.9391   57.7316   45.8893 dc         1 CLA      0.065600
     98 H172       86.6963   59.9637   45.4847 dc         1 CLA      0.027600
     99 H171       86.5460   60.5430   43.9201 dc         1 CLA      0.027600
    100 H162       86.3582   58.0576   43.1063 dc         1 CLA      0.002900
    101 H161       86.9086   57.6526   44.6942 dc         1 CLA      0.002900
    102 H152       88.8815   59.2379   44.1131 dc         1 CLA      0.029100
    103 H151       88.1676   59.6093   42.5909 dc         1 CLA      0.029100
    104 H143       89.4395   55.2856   43.3097 dc         1 CLA      0.063600
    105 H142       89.4028   56.5377   44.6823 dc         1 CLA      0.063600
    106 H141       87.8490   56.0390   43.7618 dc         1 CLA      0.063600
    107 H122       87.4833   56.5900   41.4416 dc         1 CLA      0.032500
    108 H121       89.0659   56.1491   40.8959 dc         1 CLA      0.032500
    109 H112       89.3590   58.6803   40.2214 dc         1 CLA      0.006600
    110 H111       87.5552   58.6914   40.4356 dc         1 CLA      0.006600
    111 H102       88.9822   56.9251   38.5548 dc         1 CLA      0.024100
    112 H101       88.1531   58.3566   37.9945 dc         1 CLA      0.024100
    113 HHD        73.6147   57.4900   40.0008 da         1 CLA      0.174300
    114 HHC        78.0314   61.1098   42.6566 da         1 CLA      0.136800
    115 HHB        81.9384   60.4734   37.7043 da         1 CLA      0.138300
    116 HBD        77.2857   56.7352   33.8916 dc         1 CLA      0.107700
    117 HAB        80.9998   63.4540   42.2679 da         1 CLA      0.155200
    118 H93        84.7230   57.2752   38.3512 dc         1 CLA      0.069500
    119 H92        85.5289   57.8732   39.8829 dc         1 CLA      0.069500
    120 H91        85.8033   58.7038   38.2943 dc         1 CLA      0.069500
    121 H8         86.8304   56.0274   39.4275 dc         1 CLA      0.029300
    122 H72        87.7957   55.7954   36.9471 dc         1 CLA      0.044400
    123 H71        86.5794   56.9732   36.4795 dc         1 CLA      0.044400
    124 H62        84.8445   55.3802   37.3415 dc         1 CLA      0.015600
    125 H61        86.1128   54.1234   37.3246 dc         1 CLA      0.015600
    126 H52        86.5516   54.5166   34.9264 dc         1 CLA      0.033200
    127 H51        85.1480   55.7236   35.0137 dc         1 CLA      0.033200
    128 H43        85.1943   51.8853   35.6621 dc         1 CLA      0.037000
    129 H42        84.5215   51.7071   33.9655 dc         1 CLA      0.037000
    130 H41        86.0831   52.4250   34.3409 dc         1 CLA      0.037000
    131 H3A        81.5201   59.3487   35.4310 dc         1 CLA      0.041100
    132 H2A        80.5208   56.6425   35.2539 dc         1 CLA      0.083100
    133 H2         82.6238   54.0775   35.4212 da         1 CLA      0.180900
    134 H18        84.2307   59.4255   43.8736 dc         1 CLA     -0.003900
    135 H13        90.0680   57.9287   42.5636 dc         1 CLA      0.019700
    136 H12        82.2916   53.9471   32.8222 dc         1 CLA      0.120400
    137 H11        83.7903   54.9041   32.7996 dc         1 CLA      0.120400
    138 C1         70.4729   62.2931   50.2657 Z1         2 LUT      0.509236
    139 C2         69.1203   62.0576   50.9619 Z2         2 LUT     -0.434695
    140 C3         68.0337   63.1783   50.9939 Z3         2 LUT      0.437453
    141 O3         67.9641   63.7133   52.3495 S1         2 LUT     -0.547129
    142 C4         68.3767   64.2812   50.0243 Z4         2 LUT     -0.468603
    143 C5         69.1804   63.9050   48.7488 Z5         2 LUT      0.279246
    144 C6         70.1588   63.0074   48.8869 Z6         2 LUT     -0.305473
    145 C7         70.5286   62.3465   47.6651 Z7         2 LUT      0.069402
    146 C8         71.3329   62.9675   46.7640 Z8         2 LUT     -0.191631
    147 C9         71.7406   62.6817   45.3933 Z9         2 LUT      0.196698
    148 C10        72.7707   63.3417   44.8012 Y1         2 LUT     -0.208611
    149 C11        73.4079   63.2343   43.5219 Y2         2 LUT      0.030784
    150 C12        74.5514   63.8895   43.1876 Y3         2 LUT     -0.220316
    151 C13        75.3086   63.9364   41.9342 Y4         2 LUT      0.215937
    152 C14        76.5410   64.6154   41.9755 Y5         2 LUT     -0.185793
    153 C15        77.6125   64.6225   41.0026 Y6         2 LUT     -0.057835
    154 C16        71.2515   60.8738   50.1665 Y7         2 LUT     -0.405615
    155 C17        71.2531   63.2674   51.1544 Y7         2 LUT     -0.405615
    156 C18        68.5987   64.4993   47.4771 Y9         2 LUT     -0.369639
    157 C19        71.1083   61.4517   44.7157 W1         2 LUT     -0.333362
    158 C20        74.7508   63.1327   40.7864 W2         2 LUT     -0.323439
    159 C21        88.9883   65.2176   34.3393 Z1         2 LUT      0.406104
    160 C22        89.4244   64.4567   33.0794 Z2         2 LUT     -0.404965
    161 C23        89.4134   65.3922   31.8590 Z3         2 LUT      0.391255
    162 O23        89.5023   64.4448   30.7348 S1         2 LUT     -0.528210
    163 C24        88.1685   66.1282   31.6812 W6         2 LUT     -0.258361
    164 C25        87.2632   66.3460   32.6790 Z5         2 LUT      0.133546
    165 C26        87.4844   65.7484   34.0636 W8         2 LUT     -0.147008
    166 C27        86.9050   66.6115   35.2400 Z7         2 LUT      0.023843
    167 C28        85.5726   66.5442   35.6092 Z8         2 LUT     -0.216987
    168 C29        84.9275   67.0872   36.8860 Z9         2 LUT      0.206524
    169 C30        83.8243   66.3818   37.2959 Y1         2 LUT     -0.215556
    170 C31        83.0295   66.6124   38.5062 Y2         2 LUT      0.025142
    171 C32        81.8934   65.9310   38.8000 Y3         2 LUT     -0.212209
    172 C33        80.9494   66.0927   39.9159 Y4         2 LUT      0.240937
    173 C34        79.8286   65.2310   39.9611 Y5         2 LUT     -0.218862
    174 C35        78.8490   65.1789   41.0104 Y6         2 LUT     -0.023547
    175 C36        89.9960   66.3523   34.6092 Y7         2 LUT     -0.393485
    176 C37        89.1084   64.1606   35.5110 Y7         2 LUT     -0.393485
    177 C38        85.9678   66.9427   32.2357 Y9         2 LUT     -0.387526
    178 C39        85.6101   68.1602   37.7000 W1         2 LUT     -0.322618
    179 C40        81.3634   67.1366   40.9477 W2         2 LUT     -0.358472
    180 H403       80.7248   67.2684   41.8093 R7         2 LUT      0.097720
    181 H402       82.3807   66.9511   41.3301 R7         2 LUT      0.097720
    182 H401       81.5216   68.0521   40.5175 R7         2 LUT      0.097720
    183 H393       86.1358   67.6944   38.5771 R4         2 LUT      0.082505
    184 H392       86.4224   68.6541   37.1356 R4         2 LUT      0.082505
    185 H391       84.9409   68.9906   38.0173 R4         2 LUT      0.082505
    186 H383       85.2700   66.2082   31.9144 R1         2 LUT      0.104030
    187 H382       85.5758   67.5238   33.0831 R1         2 LUT      0.104030
    188 H381       86.0850   67.6295   31.3978 R1         2 LUT      0.104030
    189 H373       90.1030   63.7268   35.6955 T4         2 LUT      0.089537
    190 H372       88.9310   64.6552   36.4552 T4         2 LUT      0.089537
    191 H371       88.3848   63.3254   35.4290 T4         2 LUT      0.089537
    192 H363       89.8643   67.0351   33.7467 T4         2 LUT      0.089537
    193 H362       89.6554   66.7431   35.5864 T4         2 LUT      0.089537
    194 H361       90.9439   65.9434   34.7081 T4         2 LUT      0.089537
    195 H222       90.3393   63.8792   33.1489 U2         2 LUT      0.127376
    196 H221       88.5149   63.7737   32.9119 U2         2 LUT      0.127376
    197 H203       75.5797   62.6512   40.2317 R7         2 LUT      0.087068
    198 H202       74.1913   62.1719   41.0311 R7         2 LUT      0.087068
    199 H201       74.2394   63.8060   40.0767 R7         2 LUT      0.087068
    200 H193       71.2102   61.4773   43.5909 R4         2 LUT      0.089716
    201 H192       71.6382   60.5036   44.9653 R4         2 LUT      0.089716
    202 H191       70.1159   61.2658   44.9905 R4         2 LUT      0.089716
    203 H183       67.4919   64.7918   47.5755 R1         2 LUT      0.094572
    204 H182       69.1974   65.4222   47.3157 R1         2 LUT      0.094572
    205 H181       68.7817   63.9871   46.4756 R1         2 LUT      0.094572
    206 H173       72.2051   63.4699   50.6788 T4         2 LUT      0.093752
    207 H172       70.7170   64.2109   51.2173 T4         2 LUT      0.093752
    208 H171       71.4245   62.7875   52.1603 T4         2 LUT      0.093752
    209 H163       72.3196   61.0863   49.8756 T4         2 LUT      0.093752
    210 H162       71.0743   60.1482   51.0334 T4         2 LUT      0.093752
    211 H161       70.8822   60.2772   49.3492 T4         2 LUT      0.093752
    212 HO3        67.6291   63.0243   52.9258 Q1         2 LUT      0.300121
    213 H8         71.6215   63.9412   47.0538 U7         2 LUT      0.080784
    214 H7         70.3221   61.2616   47.6707 U6         2 LUT      0.042190
    215 H42        67.3821   64.7053   49.8142 U5         2 LUT      0.145166
    216 H41        68.8548   65.0123   50.6219 U5         2 LUT      0.145166
    217 H35        79.0842   65.7782   41.8803 T3         2 LUT      0.077919
    218 H34        79.7256   64.6314   39.0806 T2         2 LUT      0.073626
    219 H32        81.6663   65.0877   38.1774 T1         2 LUT      0.092510
    220 H31        83.4242   67.4261   39.1077 U9         2 LUT      0.070048
    221 H30        83.4080   65.6990   36.5496 U8         2 LUT      0.085442
    222 H3         67.0696   62.7550   50.7682 U3         2 LUT     -0.031596
    223 H28        85.1427   65.7839   34.9427 U7         2 LUT      0.084728
    224 H27        87.5416   67.2359   35.9103 U6         2 LUT      0.087291
    225 H26        86.8727   64.8714   33.9341 Q6         2 LUT      0.075325
    226 H24        87.9876   66.5677   30.7182 Q5         2 LUT      0.094482
    227 H23        90.3849   65.9037   31.9023 U3         2 LUT     -0.024869
    228 H22        68.6615   61.3044   50.3643 U2         2 LUT      0.127376
    229 H21        69.2173   61.5765   51.9281 U2         2 LUT      0.127376
    230 H15        77.3362   64.1708   40.0397 T3         2 LUT      0.093200
    231 H14        76.8291   65.0773   42.9369 T2         2 LUT      0.068865
    232 H12        74.9685   64.4367   44.0641 T1         2 LUT      0.095507
    233 H11        72.9198   62.6318   42.8123 U9         2 LUT      0.068930
    234 H10        73.2154   64.1548   45.3706 U8         2 LUT      0.083911
    235 H1         89.7421   64.7534   29.8752 Q1         2 LUT      0.297311
@<TRIPOS>BOND
    1     6     1 1
    2     7     2 1
    3     8     3 1
    4     9     4 1
    5    11     4 1
    6    12     6 1
    7    13     9 1
    8    16     9 1
    9    25     5 1
   10    25    16 1
   11    26    10 1
   12    26    17 1
   13    27    18 1
   14    28    14 1
   15    28    19 1
   16    29    12 1
   17    30    13 1
   18    31    24 1
   19    32     1 1
   20    32    25 1
   21    33    21 1
   22    33    26 1
   23    34    22 1
   24    34    27 1
   25    35    23 1
   26    35    28 1
   27    36    12 1
   28    36    24 1
   29    37    13 1
   30    37    15 1
   31    38    31 1
   32    39    20 1
   33    39    32 1
   34    40     2 1
   35    40    33 1
   36    41     3 1
   37    41    34 1
   38    42     4 1
   39    42    35 1
   40    43    38 1
   41    44     5 1
   42    44    17 1
   43    44    39 1
   44    45    10 1
   45    45    18 1
   46    45    40 1
   47    46    19 1
   48    46    41 1
   49    47    14 1
   50    47    16 1
   51    47    42 1
   52    48    38 1
   53    49    48 1
   54    50    49 1
   55    51    50 1
   56    52    51 1
   57    53    51 1
   58    54    53 1
   59    55    54 1
   60    56    55 1
   61    57    56 1
   62    58    56 1
   63    59    58 1
   64    60    59 1
   65    61    60 1
   66    62    61 1
   67    63    61 1
   68    64    27 1
   69    64    46 1
   70    65     5 1
   71    65    10 1
   72    65    64 1
   73    65    14 1
   74    66    23 1
   75    67    23 1
   76    68    23 1
   77    69    22 1
   78    70    22 1
   79    71    22 1
   80    72    21 1
   81    73    21 1
   82    74    21 1
   83    75    20 1
   84    76    20 1
   85    77    20 1
   86    78    15 1
   87    79    15 1
   88    80    15 1
   89    81     8 1
   90    82     8 1
   91    83     8 1
   92    84     7 1
   93    85     7 1
   94    86     6 1
   95    87     6 1
   96    88     3 1
   97    89     3 1
   98    90     1 1
   99    91     1 1
  100    92    63 1
  101    93    63 1
  102    94    63 1
  103    95    62 1
  104    96    62 1
  105    97    62 1
  106    98    60 1
  107    99    60 1
  108   100    59 1
  109   101    59 1
  110   102    58 1
  111   103    58 1
  112   104    57 1
  113   105    57 1
  114   106    57 1
  115   107    55 1
  116   108    55 1
  117   109    54 1
  118   110    54 1
  119   111    53 1
  120   112    53 1
  121   113    19 1
  122   114    18 1
  123   115    17 1
  124   116     9 1
  125   117     2 1
  126   118    52 1
  127   119    52 1
  128   120    52 1
  129   121    51 1
  130   122    50 1
  131   123    50 1
  132   124    49 1
  133   125    49 1
  134   126    48 1
  135   127    48 1
  136   128    43 1
  137   129    43 1
  138   130    43 1
  139   131    39 1
  140   132    32 1
  141   133    31 1
  142   134    61 1
  143   135    56 1
  144   136    24 1
  145   137    24 1
  146   139   138 1
  147   140   139 1
  148   141   140 1
  149   142   140 1
  150   143   142 1
  151   144   138 1
  152   144   143 1
  153   145   144 1
  154   146   145 1
  155   147   146 1
  156   148   147 1
  157   149   148 1
  158   150   149 1
  159   151   150 1
  160   152   151 1
  161   153   152 1
  162   154   138 1
  163   155   138 1
  164   156   143 1
  165   157   147 1
  166   158   151 1
  167   160   159 1
  168   161   160 1
  169   162   161 1
  170   163   161 1
  171   164   163 1
  172   165   159 1
  173   165   164 1
  174   166   165 1
  175   167   166 1
  176   168   167 1
  177   169   168 1
  178   170   169 1
  179   171   170 1
  180   172   171 1
  181   173   172 1
  182   174   153 1
  183   174   173 1
  184   175   159 1
  185   176   159 1
  186   177   164 1
  187   178   168 1
  188   179   172 1
  189   180   179 1
  190   181   179 1
  191   182   179 1
  192   183   178 1
  193   184   178 1
  194   185   178 1
  195   186   177 1
  196   187   177 1
  197   188   177 1
  198   189   176 1
  199   190   176 1
  200   191   176 1
  201   192   175 1
  202   193   175 1
  203   194   175 1
  204   195   160 1
  205   196   160 1
  206   197   158 1
  207   198   158 1
  208   199   158 1
  209   200   157 1
  210   201   157 1
  211   202   157 1
  212   203   156 1
  213   204   156 1
  214   205   156 1
  215   206   155 1
  216   207   155 1
  217   208   155 1
  218   209   154 1
  219   210   154 1
  220   211   154 1
  221   212   141 1
  222   213   146 1
  223   214   145 1
  224   215   142 1
  225   216   142 1
  226   217   174 1
  227   218   173 1
  228   219   171 1
  229   220   170 1
  230   221   169 1
  231   222   140 1
  232   223   167 1
  233   224   166 1
  234   225   165 1
  235   226   163 1
  236   227   161 1
  237   228   139 1
  238   229   139 1
  239   230   153 1
  240   231   152 1
  241   232   150 1
  242   233   149 1
  243   234   148 1
  244   235   162 1
  245   65    153 1
  246   65    174 1
@<TRIPOS>SUBSTRUCTURE
      1 CLA               1 ****               0 ****  **** 
      2 LUT             138 ****               0 ****  **** 
