@<TRIPOS>MOLECULE
Cpptraj generated mol2 file.
  235   246     2     0     0
SMALL
USER_CHARGES


@<TRIPOS>ATOM
      1 CAA        77.1066   57.4293   34.4999 a2         1 CLA     -0.055900
      2 CAB        76.6143   61.7237   43.2909 c8         1 CLA     -0.148500
      3 CAC        70.3748   56.7272   43.0958 a2         1 CLA     -0.012600
      4 CAD        73.3335   54.5542   35.9443 ck         1 CLA      0.398800
      5 NA         76.1716   57.8342   38.0689 ns         1 CLA     -0.225500
      6 CBA        78.4088   57.6990   33.6958 a2         1 CLA     -0.135000
      7 CBB        77.7523   62.0495   43.9819 c0         1 CLA     -0.395200
      8 CBC        70.6086   55.2437   43.3008 a3         1 CLA     -0.037700
      9 CBD        74.7091   55.0975   35.6527 a1         1 CLA     -0.053900
     10 NB         75.7173   59.4961   40.4452 nm         1 CLA     -0.295700
     11 OBD        72.5882   53.7760   35.3160 o2         1 CLA     -0.494600
     12 CGA        79.2851   56.4161   33.3143 c4         1 CLA      0.827000
     13 CGD        75.8086   54.0489   35.4581 c4         1 CLA      0.655300
     14 ND         73.5016   56.6698   38.7245 nm         1 CLA     -0.291600
     15 CED        76.7782   51.9777   36.0054 a3         1 CLA      0.005400
     16 CHA        75.0354   56.1048   36.7900 cs         1 CLA     -0.123800
     17 CHB        77.5322   59.5934   38.7946 aa         1 CLA     -0.291900
     18 CHC        74.4301   59.7857   42.5431 aa         1 CLA     -0.090400
     19 CHD        71.7293   56.3290   40.3107 aa         1 CLA     -0.052000
     20 CMA        79.5681   57.6556   37.3307 a3         1 CLA     -0.230700
     21 CMB        78.9094   61.5211   40.8223 a3         1 CLA     -0.180800
     22 CMC        72.2261   58.8496   44.7304 a3         1 CLA     -0.134000
     23 CMD        70.6988   54.1689   38.1075 a3         1 CLA     -0.141100
     24 C1         80.6651   54.7201   34.3963 a2         1 CLA      0.023000
     25 C1A        76.1159   56.9922   36.9801 ac         1 CLA     -0.015100
     26 C1B        76.9242   59.9502   40.0162 cr         1 CLA      0.054700
     27 C1C        73.4132   58.8249   42.2681 cn         1 CLA     -0.005600
     28 C1D        72.3194   56.0761   39.1080 ap         1 CLA     -0.047300
     29 O1A        79.2030   55.7899   32.2609 o2         1 CLA     -0.610800
     30 O1D        76.6210   54.0904   34.5534 o2         1 CLA     -0.558200
     31 C2         81.4284   54.4956   35.6672 c8         1 CLA     -0.325100
     32 C2A        77.3897   57.0870   36.0320 a1         1 CLA      0.098600
     33 C2B        77.5202   60.8835   40.9670 cb         1 CLA      0.088500
     34 C2C        72.3817   58.4104   43.2645 cb         1 CLA      0.053700
     35 C2D        71.9765   55.0123   38.1819 cb         1 CLA      0.058900
     36 O2A        80.0765   56.0447   34.4145 o1         1 CLA     -0.437200
     37 O2D        75.7100   52.9872   36.3074 o1         1 CLA     -0.357600
     38 C3         82.2506   53.4884   35.9438 c5         1 CLA      0.031200
     39 C3A        78.1914   58.1977   36.8531 a1         1 CLA      0.166800
     40 C3B        76.5945   60.9137   42.0298 cb         1 CLA      0.035000
     41 C3C        71.6274   57.4735   42.6198 cb         1 CLA     -0.089900
     42 C3D        72.9689   55.0929   37.2560 cb         1 CLA     -0.035900
     43 C4         81.8472   52.1870   36.6761 a3         1 CLA     -0.053300
     44 C4A        77.2142   58.6412   37.8940 ac         1 CLA      0.001800
     45 C4B        75.5101   60.0756   41.6650 cn         1 CLA     -0.020900
     46 C4C        72.1779   57.2182   41.3233 cr         1 CLA     -0.044400
     47 C4D        73.8786   56.0399   37.5825 c6         1 CLA     -0.046000
     48 C5         83.7303   53.5792   35.5895 a2         1 CLA     -0.070400
     49 C6         84.4873   54.8099   36.0934 a2         1 CLA      0.043900
     50 C7         84.4403   55.0690   37.5706 a2         1 CLA     -0.150000
     51 C8         85.4729   56.1747   38.1983 a1         1 CLA      0.064200
     52 C9         86.9424   55.6070   38.2377 a3         1 CLA     -0.259300
     53 C10        84.9546   56.5582   39.6810 a2         1 CLA     -0.071900
     54 C11        83.5933   57.2601   39.9304 a2         1 CLA      0.014500
     55 C12        83.5801   58.0552   41.2375 a2         1 CLA     -0.112100
     56 C13        84.2518   57.3316   42.4996 a1         1 CLA      0.089200
     57 C14        83.3729   56.1491   43.1169 a3         1 CLA     -0.239100
     58 C15        84.5555   58.3300   43.6295 a2         1 CLA     -0.102200
     59 C16        83.3748   59.3319   43.9692 a2         1 CLA      0.023900
     60 C17        83.8223   60.2588   45.2141 a2         1 CLA     -0.105700
     61 C18        82.6414   60.9936   45.9737 a1         1 CLA      0.206800
     62 C19        83.2322   61.9421   46.9669 a3         1 CLA     -0.280100
     63 C20        81.4939   61.6952   45.0473 a3         1 CLA     -0.280100
     64 NC         73.2056   58.1130   41.1169 nx         1 CLA     -0.309200
     65 MG         74.5682   58.1354   39.5082 mg         1 CLA      0.895000
     66 HMD3       69.9882   54.8256   37.5661 dc         1 CLA      0.064300
     67 HMD2       71.0397   53.3524   37.4767 dc         1 CLA      0.064300
     68 HMD1       70.3540   53.8697   39.0929 dc         1 CLA      0.064300
     69 HMC3       72.0413   59.8721   44.6631 dc         1 CLA      0.052100
     70 HMC2       71.3622   58.4853   45.2057 dc         1 CLA      0.052100
     71 HMC1       73.0215   58.7656   45.3768 dc         1 CLA      0.052100
     72 HMB3       79.5632   60.6986   41.1569 dc         1 CLA      0.063600
     73 HMB2       79.2486   61.8453   39.8823 dc         1 CLA      0.063600
     74 HMB1       79.1080   62.2982   41.5519 dc         1 CLA      0.063600
     75 HMA3       80.2358   57.3701   36.4808 dc         1 CLA      0.058300
     76 HMA2       79.9809   58.4333   37.9036 dc         1 CLA      0.058300
     77 HMA1       79.2520   56.7426   37.9560 dc         1 CLA      0.058300
     78 HED3       76.5654   51.5269   35.0147 dc         1 CLA      0.079300
     79 HED2       77.7664   52.3665   36.0299 dc         1 CLA      0.079300
     80 HED1       76.7298   51.1165   36.7327 dc         1 CLA      0.079300
     81 HBC3       69.6944   54.7980   43.7021 dc         1 CLA      0.016300
     82 HBC2       70.8560   54.6652   42.4508 dc         1 CLA      0.016300
     83 HBC1       71.3914   55.0100   43.9981 dc         1 CLA      0.016300
     84 HBB2       77.6811   62.5993   44.9299 da         1 CLA      0.183000
     85 HBB1       78.7690   61.7700   43.6214 da         1 CLA      0.183000
     86 HBA2       78.1272   58.0771   32.7089 dc         1 CLA      0.029400
     87 HBA1       79.0319   58.4230   34.1784 dc         1 CLA      0.029400
     88 HAC2       70.0613   57.0755   44.0844 dc         1 CLA      0.029300
     89 HAC1       69.5641   56.9121   42.3841 dc         1 CLA      0.029300
     90 HAA2       76.6197   56.5714   34.0158 dc         1 CLA      0.028700
     91 HAA1       76.4830   58.3295   34.4344 dc         1 CLA      0.028700
     92 H203       81.7860   62.5676   44.5428 dc         1 CLA      0.065600
     93 H202       81.0671   61.0232   44.2490 dc         1 CLA      0.065600
     94 H201       80.7136   61.8297   45.6791 dc         1 CLA      0.065600
     95 H193       83.7006   61.4252   47.7948 dc         1 CLA      0.065600
     96 H192       83.8960   62.5407   46.3839 dc         1 CLA      0.065600
     97 H191       82.4418   62.5404   47.3428 dc         1 CLA      0.065600
     98 H172       84.2293   59.6344   45.9614 dc         1 CLA      0.027600
     99 H171       84.6070   60.8857   44.9615 dc         1 CLA      0.027600
    100 H162       83.1295   59.8570   43.0769 dc         1 CLA      0.002900
    101 H161       82.5297   58.7878   44.2267 dc         1 CLA      0.002900
    102 H152       84.7779   57.7759   44.5160 dc         1 CLA      0.029100
    103 H151       85.3637   58.9531   43.3607 dc         1 CLA      0.029100
    104 H143       83.8825   55.6005   43.8498 dc         1 CLA      0.063600
    105 H142       82.3853   56.3830   43.5621 dc         1 CLA      0.063600
    106 H141       83.0998   55.4802   42.2993 dc         1 CLA      0.063600
    107 H122       84.0368   59.0222   41.0665 dc         1 CLA      0.032500
    108 H121       82.6041   58.2777   41.5496 dc         1 CLA      0.032500
    109 H112       83.2921   58.0000   39.1603 dc         1 CLA      0.006600
    110 H111       82.8320   56.5499   39.8732 dc         1 CLA      0.006600
    111 H102       85.0204   55.7044   40.3680 dc         1 CLA      0.024100
    112 H101       85.6269   57.2442   40.1510 dc         1 CLA      0.024100
    113 HHD        70.8742   55.6590   40.6309 da         1 CLA      0.174300
    114 HHC        74.4933   60.3066   43.4957 da         1 CLA      0.136800
    115 HHB        78.5815   59.9187   38.7959 da         1 CLA      0.138300
    116 HBD        74.5883   55.5264   34.6640 dc         1 CLA      0.107700
    117 HAB        75.7353   62.0587   43.7487 da         1 CLA      0.155200
    118 H93        86.9498   54.6664   38.7621 dc         1 CLA      0.069500
    119 H92        87.2493   55.2604   37.2000 dc         1 CLA      0.069500
    120 H91        87.6523   56.2760   38.7677 dc         1 CLA      0.069500
    121 H8         85.4407   57.0312   37.5918 dc         1 CLA      0.029300
    122 H72        83.4157   55.4064   37.7538 dc         1 CLA      0.044400
    123 H71        84.7409   54.1222   38.1207 dc         1 CLA      0.044400
    124 H62        85.5679   54.7913   35.7556 dc         1 CLA      0.015600
    125 H61        83.9649   55.6287   35.6229 dc         1 CLA      0.015600
    126 H52        84.2363   52.7748   36.0910 dc         1 CLA      0.033200
    127 H51        83.7605   53.5103   34.5136 dc         1 CLA      0.033200
    128 H43        82.3737   52.0375   37.6289 dc         1 CLA      0.037000
    129 H42        80.7514   52.0309   36.6966 dc         1 CLA      0.037000
    130 H41        82.2453   51.4065   36.0751 dc         1 CLA      0.037000
    131 H3A        78.3834   59.0314   36.1325 dc         1 CLA      0.041100
    132 H2A        77.8627   56.0914   36.0565 dc         1 CLA      0.083100
    133 H2         81.2741   55.3480   36.3429 da         1 CLA      0.180900
    134 H18        82.0809   60.1975   46.5206 dc         1 CLA     -0.003900
    135 H13        85.2388   57.0896   42.2283 dc         1 CLA      0.019700
    136 H12        79.8365   54.0470   34.3455 dc         1 CLA      0.120400
    137 H11        81.4056   54.6029   33.6375 dc         1 CLA      0.120400
    138 C1         67.2250   60.6502   50.3310 Z1         2 LUT      0.509236
    139 C2         65.9907   60.5069   51.2607 Z2         2 LUT     -0.434695
    140 C3         65.0584   61.6613   51.5271 Z3         2 LUT      0.437453
    141 O3         65.2583   62.2562   52.8015 S1         2 LUT     -0.547129
    142 C4         65.3023   62.8335   50.6083 Z4         2 LUT     -0.468603
    143 C5         65.9327   62.4620   49.2653 Z5         2 LUT      0.279246
    144 C6         66.8649   61.4823   49.1758 Z6         2 LUT     -0.305473
    145 C7         67.3045   60.9631   47.8709 Z7         2 LUT      0.069402
    146 C8         68.1173   61.5877   46.9525 Z8         2 LUT     -0.191631
    147 C9         68.6815   61.0698   45.7509 Z9         2 LUT      0.196698
    148 C10        69.7299   61.7719   45.2119 Y1         2 LUT     -0.208611
    149 C11        70.3790   61.6365   43.9376 Y2         2 LUT      0.030784
    150 C12        71.3550   62.5837   43.5888 Y3         2 LUT     -0.220316
    151 C13        72.1566   62.5303   42.3398 Y4         2 LUT      0.215937
    152 C14        73.2409   63.3702   42.3096 Y5         2 LUT     -0.185793
    153 C15        74.3800   63.4715   41.3761 Y6         2 LUT     -0.057835
    154 C16        67.7273   59.2881   50.0981 Y7         2 LUT     -0.405615
    155 C17        68.3935   61.3288   51.0681 Y7         2 LUT     -0.405615
    156 C18        65.3788   63.1998   48.0689 Y9         2 LUT     -0.369639
    157 C19        68.2392   59.7354   45.2477 W1         2 LUT     -0.333362
    158 C20        71.5354   61.8695   41.0977 W2         2 LUT     -0.323439
    159 C21        86.0668   65.2287   35.4778 Z1         2 LUT      0.406104
    160 C22        86.7564   64.5760   34.2601 Z2         2 LUT     -0.404965
    161 C23        86.6088   65.2107   32.8751 Z3         2 LUT      0.391255
    162 O23        86.5931   64.2346   31.7797 S1         2 LUT     -0.528210
    163 C24        85.2669   66.0124   32.8167 W6         2 LUT     -0.258361
    164 C25        84.3189   66.0210   33.6905 Z5         2 LUT      0.133546
    165 C26        84.5195   65.4181   35.0859 W8         2 LUT     -0.147008
    166 C27        83.8316   66.1469   36.2270 Z7         2 LUT      0.023843
    167 C28        82.5836   65.8787   36.7743 Z8         2 LUT     -0.216987
    168 C29        81.7591   66.5158   37.8346 Z9         2 LUT      0.206524
    169 C30        80.6670   65.8236   38.3327 Y1         2 LUT     -0.215556
    170 C31        79.8076   66.0445   39.3893 Y2         2 LUT      0.025142
    171 C32        78.6860   65.2989   39.6640 Y3         2 LUT     -0.212209
    172 C33        77.5908   65.4239   40.6614 Y4         2 LUT      0.240937
    173 C34        76.4835   64.5748   40.6523 Y5         2 LUT     -0.218862
    174 C35        75.3936   64.3069   41.5508 Y6         2 LUT     -0.023547
    175 C36        86.9344   66.5112   35.6470 Y7         2 LUT     -0.393485
    176 C37        86.2256   64.2538   36.7203 Y7         2 LUT     -0.393485
    177 C38        82.9304   66.7225   33.4537 Y9         2 LUT     -0.387526
    178 C39        82.1374   67.9009   38.2564 W1         2 LUT     -0.322618
    179 C40        77.9878   66.2516   41.8482 W2         2 LUT     -0.358472
    180 H403       77.4964   65.9258   42.8005 R7         2 LUT      0.097720
    181 H402       79.0954   66.2356   42.0078 R7         2 LUT      0.097720
    182 H401       77.7273   67.2489   41.7763 R7         2 LUT      0.097720
    183 H393       81.6087   68.4167   38.9836 R4         2 LUT      0.082505
    184 H392       83.1285   67.9970   38.7286 R4         2 LUT      0.082505
    185 H391       82.0368   68.4332   37.2854 R4         2 LUT      0.082505
    186 H383       82.6758   67.4973   34.1480 R1         2 LUT      0.104030
    187 H382       83.0173   67.2006   32.5666 R1         2 LUT      0.104030
    188 H381       82.0851   66.0591   33.2637 R1         2 LUT      0.104030
    189 H373       87.2599   63.9697   37.0524 T4         2 LUT      0.089537
    190 H372       85.8538   64.7296   37.6257 T4         2 LUT      0.089537
    191 H371       85.7792   63.3147   36.6586 T4         2 LUT      0.089537
    192 H363       87.9732   66.2594   35.9292 T4         2 LUT      0.089537
    193 H362       86.9452   67.1376   34.7085 T4         2 LUT      0.089537
    194 H361       86.5508   67.1161   36.4323 T4         2 LUT      0.089537
    195 H222       87.7559   64.3363   34.3630 U2         2 LUT      0.127376
    196 H221       86.3425   63.5473   34.1201 U2         2 LUT      0.127376
    197 H203       71.2644   60.8367   41.3831 R7         2 LUT      0.087068
    198 H202       70.6012   62.4499   40.7513 R7         2 LUT      0.087068
    199 H201       72.1621   61.7946   40.1971 R7         2 LUT      0.087068
    200 H193       67.3691   59.8670   44.7112 R4         2 LUT      0.089716
    201 H192       68.9492   59.2322   44.6386 R4         2 LUT      0.089716
    202 H191       67.9466   59.0599   46.0025 R4         2 LUT      0.089716
    203 H183       65.6192   62.7747   47.1072 R1         2 LUT      0.094572
    204 H182       64.3381   63.3754   48.0414 R1         2 LUT      0.094572
    205 H181       65.7786   64.2886   48.0375 R1         2 LUT      0.094572
    206 H173       69.3273   61.6302   50.4310 T4         2 LUT      0.093752
    207 H172       68.2394   62.2910   51.5687 T4         2 LUT      0.093752
    208 H171       68.7573   60.6568   51.8518 T4         2 LUT      0.093752
    209 H163       67.9386   58.7202   51.0005 T4         2 LUT      0.093752
    210 H162       67.0636   58.5860   49.6432 T4         2 LUT      0.093752
    211 H161       68.6922   59.1717   49.4890 T4         2 LUT      0.093752
    212 HO3        65.0473   61.7140   53.5597 Q1         2 LUT      0.300121
    213 H8         68.4839   62.5066   47.1989 U7         2 LUT      0.080784
    214 H7         66.9370   60.0107   47.6552 U6         2 LUT      0.042190
    215 H42        64.2964   63.2493   50.3962 U5         2 LUT      0.145166
    216 H41        65.8443   63.6824   51.0722 U5         2 LUT      0.145166
    217 H35        75.3443   64.9356   42.4954 T3         2 LUT      0.077919
    218 H34        76.4584   63.8866   39.7883 T2         2 LUT      0.073626
    219 H32        78.5249   64.4688   38.9691 T1         2 LUT      0.092510
    220 H31        80.0082   66.8924   39.9665 U9         2 LUT      0.070048
    221 H30        80.4268   64.9284   37.7363 U8         2 LUT      0.085442
    222 H3         63.9606   61.4145   51.3416 U3         2 LUT     -0.031596
    223 H28        82.0079   64.9871   36.3192 U7         2 LUT      0.084728
    224 H27        84.3019   67.1013   36.6154 U6         2 LUT      0.087291
    225 H26        84.0177   64.4393   35.0448 Q6         2 LUT      0.075325
    226 H24        85.0563   66.5093   31.9179 Q5         2 LUT      0.094482
    227 H23        87.3629   66.0206   32.7247 U3         2 LUT     -0.024869
    228 H22        65.3550   59.7512   50.8183 U2         2 LUT      0.127376
    229 H21        66.3189   60.0387   52.1981 U2         2 LUT      0.127376
    230 H15        74.3588   62.8333   40.4944 T3         2 LUT      0.093200
    231 H14        73.4721   64.0277   43.1369 T2         2 LUT      0.068865
    232 H12        71.6707   63.3168   44.3594 T1         2 LUT      0.095507
    233 H11        70.1320   60.7691   43.2690 U9         2 LUT      0.068930
    234 H10        69.9269   62.6706   45.7685 U8         2 LUT      0.083911
    235 H1         86.6893   64.5880   30.8966 Q1         2 LUT      0.297311
@<TRIPOS>BOND
    1     6     1 1
    2     7     2 1
    3     8     3 1
    4     9     4 1
    5    11     4 1
    6    12     6 1
    7    13     9 1
    8    16     9 1
    9    25     5 1
   10    25    16 1
   11    26    10 1
   12    26    17 1
   13    27    18 1
   14    28    14 1
   15    28    19 1
   16    29    12 1
   17    30    13 1
   18    31    24 1
   19    32     1 1
   20    32    25 1
   21    33    21 1
   22    33    26 1
   23    34    22 1
   24    34    27 1
   25    35    23 1
   26    35    28 1
   27    36    12 1
   28    36    24 1
   29    37    13 1
   30    37    15 1
   31    38    31 1
   32    39    20 1
   33    39    32 1
   34    40     2 1
   35    40    33 1
   36    41     3 1
   37    41    34 1
   38    42     4 1
   39    42    35 1
   40    43    38 1
   41    44     5 1
   42    44    17 1
   43    44    39 1
   44    45    10 1
   45    45    18 1
   46    45    40 1
   47    46    19 1
   48    46    41 1
   49    47    14 1
   50    47    16 1
   51    47    42 1
   52    48    38 1
   53    49    48 1
   54    50    49 1
   55    51    50 1
   56    52    51 1
   57    53    51 1
   58    54    53 1
   59    55    54 1
   60    56    55 1
   61    57    56 1
   62    58    56 1
   63    59    58 1
   64    60    59 1
   65    61    60 1
   66    62    61 1
   67    63    61 1
   68    64    27 1
   69    64    46 1
   70    65     5 1
   71    65    10 1
   72    65    64 1
   73    65    14 1
   74    66    23 1
   75    67    23 1
   76    68    23 1
   77    69    22 1
   78    70    22 1
   79    71    22 1
   80    72    21 1
   81    73    21 1
   82    74    21 1
   83    75    20 1
   84    76    20 1
   85    77    20 1
   86    78    15 1
   87    79    15 1
   88    80    15 1
   89    81     8 1
   90    82     8 1
   91    83     8 1
   92    84     7 1
   93    85     7 1
   94    86     6 1
   95    87     6 1
   96    88     3 1
   97    89     3 1
   98    90     1 1
   99    91     1 1
  100    92    63 1
  101    93    63 1
  102    94    63 1
  103    95    62 1
  104    96    62 1
  105    97    62 1
  106    98    60 1
  107    99    60 1
  108   100    59 1
  109   101    59 1
  110   102    58 1
  111   103    58 1
  112   104    57 1
  113   105    57 1
  114   106    57 1
  115   107    55 1
  116   108    55 1
  117   109    54 1
  118   110    54 1
  119   111    53 1
  120   112    53 1
  121   113    19 1
  122   114    18 1
  123   115    17 1
  124   116     9 1
  125   117     2 1
  126   118    52 1
  127   119    52 1
  128   120    52 1
  129   121    51 1
  130   122    50 1
  131   123    50 1
  132   124    49 1
  133   125    49 1
  134   126    48 1
  135   127    48 1
  136   128    43 1
  137   129    43 1
  138   130    43 1
  139   131    39 1
  140   132    32 1
  141   133    31 1
  142   134    61 1
  143   135    56 1
  144   136    24 1
  145   137    24 1
  146   139   138 1
  147   140   139 1
  148   141   140 1
  149   142   140 1
  150   143   142 1
  151   144   138 1
  152   144   143 1
  153   145   144 1
  154   146   145 1
  155   147   146 1
  156   148   147 1
  157   149   148 1
  158   150   149 1
  159   151   150 1
  160   152   151 1
  161   153   152 1
  162   154   138 1
  163   155   138 1
  164   156   143 1
  165   157   147 1
  166   158   151 1
  167   160   159 1
  168   161   160 1
  169   162   161 1
  170   163   161 1
  171   164   163 1
  172   165   159 1
  173   165   164 1
  174   166   165 1
  175   167   166 1
  176   168   167 1
  177   169   168 1
  178   170   169 1
  179   171   170 1
  180   172   171 1
  181   173   172 1
  182   174   153 1
  183   174   173 1
  184   175   159 1
  185   176   159 1
  186   177   164 1
  187   178   168 1
  188   179   172 1
  189   180   179 1
  190   181   179 1
  191   182   179 1
  192   183   178 1
  193   184   178 1
  194   185   178 1
  195   186   177 1
  196   187   177 1
  197   188   177 1
  198   189   176 1
  199   190   176 1
  200   191   176 1
  201   192   175 1
  202   193   175 1
  203   194   175 1
  204   195   160 1
  205   196   160 1
  206   197   158 1
  207   198   158 1
  208   199   158 1
  209   200   157 1
  210   201   157 1
  211   202   157 1
  212   203   156 1
  213   204   156 1
  214   205   156 1
  215   206   155 1
  216   207   155 1
  217   208   155 1
  218   209   154 1
  219   210   154 1
  220   211   154 1
  221   212   141 1
  222   213   146 1
  223   214   145 1
  224   215   142 1
  225   216   142 1
  226   217   174 1
  227   218   173 1
  228   219   171 1
  229   220   170 1
  230   221   169 1
  231   222   140 1
  232   223   167 1
  233   224   166 1
  234   225   165 1
  235   226   163 1
  236   227   161 1
  237   228   139 1
  238   229   139 1
  239   230   153 1
  240   231   152 1
  241   232   150 1
  242   233   149 1
  243   234   148 1
  244   235   162 1
  245   65    153 1
  246   65    174 1
@<TRIPOS>SUBSTRUCTURE
      1 CLA               1 ****               0 ****  **** 
      2 LUT             138 ****               0 ****  **** 
