@<TRIPOS>MOLECULE
Cpptraj generated mol2 file.
  235   246     2     0     0
SMALL
USER_CHARGES


@<TRIPOS>ATOM
      1 CAA        77.9420   58.6969   33.9148 a2         1 CLA     -0.055900
      2 CAB        77.6551   62.1335   42.8907 c8         1 CLA     -0.148500
      3 CAC        70.7989   57.9045   42.1934 a2         1 CLA     -0.012600
      4 CAD        73.8975   55.8983   34.7959 ck         1 CLA      0.398800
      5 NA         76.8734   58.7574   37.3381 ns         1 CLA     -0.225500
      6 CBA        79.1506   58.6820   33.0267 a2         1 CLA     -0.135000
      7 CBB        78.7969   62.1758   43.6276 c0         1 CLA     -0.395200
      8 CBC        70.7134   56.4244   42.3157 a3         1 CLA     -0.037700
      9 CBD        75.3419   56.5667   34.5375 a1         1 CLA     -0.053900
     10 NB         76.6216   60.1877   39.9494 nm         1 CLA     -0.295700
     11 OBD        73.3920   55.1588   33.9617 o2         1 CLA     -0.494600
     12 CGA        79.5777   57.2802   32.5440 c4         1 CLA      0.827000
     13 CGD        76.3774   55.4948   34.2194 c4         1 CLA      0.655300
     14 ND         74.1826   57.7131   37.8456 nm         1 CLA     -0.291600
     15 CED        77.2296   53.2420   34.8871 a3         1 CLA      0.005400
     16 CHA        75.6325   57.4446   35.7921 cs         1 CLA     -0.123800
     17 CHB        78.5124   60.1900   38.4898 aa         1 CLA     -0.291900
     18 CHC        75.1897   60.4706   41.8709 aa         1 CLA     -0.090400
     19 CHD        72.2907   57.3790   39.4164 aa         1 CLA     -0.052000
     20 CMA        80.3705   58.1969   36.6983 a3         1 CLA     -0.230700
     21 CMB        79.9604   61.8584   40.5440 a3         1 CLA     -0.180800
     22 CMC        72.8767   59.7283   43.8637 a3         1 CLA     -0.134000
     23 CMD        71.2035   55.5676   36.9802 a3         1 CLA     -0.141100
     24 C1         80.5294   55.1441   33.3163 a2         1 CLA      0.023000
     25 C1A        76.7980   58.1389   36.1411 ac         1 CLA     -0.015100
     26 C1B        77.8815   60.5424   39.6997 cr         1 CLA      0.054700
     27 C1C        74.1552   59.5807   41.5617 cn         1 CLA     -0.005600
     28 C1D        72.9273   57.1158   38.1745 ap         1 CLA     -0.047300
     29 O1A        79.4027   56.7699   31.4409 o2         1 CLA     -0.610800
     30 O1D        77.0977   55.4513   33.2175 o2         1 CLA     -0.558200
     31 C2         81.1376   54.6945   34.6440 c8         1 CLA     -0.325100
     32 C2A        78.1159   58.2417   35.3211 a1         1 CLA      0.098600
     33 C2B        78.4960   61.2851   40.6618 cb         1 CLA      0.088500
     34 C2C        72.9863   59.2532   42.4832 cb         1 CLA      0.053700
     35 C2D        72.4746   56.2336   37.0475 cb         1 CLA      0.058900
     36 O2A        80.2043   56.5758   33.5384 o1         1 CLA     -0.437200
     37 O2D        76.4711   54.5101   35.1974 o1         1 CLA     -0.357600
     38 C3         82.0345   53.7424   34.9477 c5         1 CLA      0.031200
     39 C3A        79.0558   58.9631   36.2891 a1         1 CLA      0.166800
     40 C3B        77.5282   61.4582   41.6269 cb         1 CLA      0.035000
     41 C3C        72.1725   58.4043   41.7721 cb         1 CLA     -0.089900
     42 C3D        73.5083   56.3804   36.1175 cb         1 CLA     -0.035900
     43 C4         81.5752   52.3208   35.3057 a3         1 CLA     -0.053300
     44 C4A        78.1088   59.3447   37.4459 ac         1 CLA      0.001800
     45 C4B        76.3700   60.7012   41.1934 cn         1 CLA     -0.020900
     46 C4C        72.7358   58.2225   40.4286 cr         1 CLA     -0.044400
     47 C4D        74.4591   57.2829   36.5897 c6         1 CLA     -0.046000
     48 C5         83.5340   53.9142   34.7808 a2         1 CLA     -0.070400
     49 C6         84.2115   55.3146   35.0762 a2         1 CLA      0.043900
     50 C7         84.1276   55.6952   36.6088 a2         1 CLA     -0.150000
     51 C8         84.2798   57.1965   37.0839 a1         1 CLA      0.064200
     52 C9         85.4764   57.8892   36.4137 a3         1 CLA     -0.259300
     53 C10        84.4131   57.3893   38.6423 a2         1 CLA     -0.071900
     54 C11        83.2891   56.9100   39.5993 a2         1 CLA      0.014500
     55 C12        83.3318   57.4704   40.9940 a2         1 CLA     -0.112100
     56 C13        82.4052   56.7637   41.9380 a1         1 CLA      0.089200
     57 C14        80.8660   57.1379   41.6923 a3         1 CLA     -0.239100
     58 C15        82.8152   56.9560   43.4808 a2         1 CLA     -0.102200
     59 C16        82.6481   58.4379   43.9379 a2         1 CLA      0.023900
     60 C17        83.0717   58.6560   45.4331 a2         1 CLA     -0.105700
     61 C18        82.8995   60.0762   46.1798 a1         1 CLA      0.206800
     62 C19        81.4383   60.6157   46.1980 a3         1 CLA     -0.280100
     63 C20        83.4187   59.9127   47.6040 a3         1 CLA     -0.280100
     64 NC         73.9337   58.9257   40.3713 nx         1 CLA     -0.309200
     65 MG         75.3333   59.0359   38.7848 mg         1 CLA      0.895000
     66 HMD3       70.4089   56.1953   36.8191 dc         1 CLA      0.064300
     67 HMD2       71.1842   54.9161   36.0878 dc         1 CLA      0.064300
     68 HMD1       71.0555   54.9458   37.8445 dc         1 CLA      0.064300
     69 HMC3       73.6392   59.4259   44.5046 dc         1 CLA      0.052100
     70 HMC2       73.0013   60.8304   43.9760 dc         1 CLA      0.052100
     71 HMC1       71.9577   59.3676   44.2288 dc         1 CLA      0.052100
     72 HMB3       80.0756   62.5122   41.4123 dc         1 CLA      0.063600
     73 HMB2       80.6958   61.0832   40.6589 dc         1 CLA      0.063600
     74 HMB1       79.9430   62.4239   39.5874 dc         1 CLA      0.063600
     75 HMA3       80.9039   58.8517   37.3479 dc         1 CLA      0.058300
     76 HMA2       80.0674   57.3985   37.4172 dc         1 CLA      0.058300
     77 HMA1       80.9659   57.7033   35.8946 dc         1 CLA      0.058300
     78 HED3       78.2531   53.3089   35.2416 dc         1 CLA      0.079300
     79 HED2       76.6404   52.4038   35.3905 dc         1 CLA      0.079300
     80 HED1       77.3057   53.0162   33.7728 dc         1 CLA      0.079300
     81 HBC3       70.6986   56.0593   43.3202 dc         1 CLA      0.016300
     82 HBC2       69.9172   55.9342   41.7324 dc         1 CLA      0.016300
     83 HBC1       71.6055   56.0767   41.8577 dc         1 CLA      0.016300
     84 HBB2       78.8514   62.8589   44.4973 da         1 CLA      0.183000
     85 HBB1       79.6834   61.6561   43.2840 da         1 CLA      0.183000
     86 HBA2       78.9113   59.1782   32.1232 dc         1 CLA      0.029400
     87 HBA1       80.0140   59.3048   33.4567 dc         1 CLA      0.029400
     88 HAC2       70.4397   58.4024   43.1030 dc         1 CLA      0.029300
     89 HAC1       70.1432   58.2035   41.4052 dc         1 CLA      0.029300
     90 HAA2       77.2478   58.1265   33.3388 dc         1 CLA      0.028700
     91 HAA1       77.6092   59.7679   34.0382 dc         1 CLA      0.028700
     92 H203       83.3654   60.8741   48.0593 dc         1 CLA      0.065600
     93 H202       82.7775   59.3041   48.2401 dc         1 CLA      0.065600
     94 H201       84.4128   59.5557   47.7070 dc         1 CLA      0.065600
     95 H193       80.7607   59.8689   46.6542 dc         1 CLA      0.065600
     96 H192       81.3263   61.6268   46.5832 dc         1 CLA      0.065600
     97 H191       81.1301   60.5278   45.1472 dc         1 CLA      0.065600
     98 H172       82.6102   57.8403   46.0271 dc         1 CLA      0.027600
     99 H171       84.1038   58.3776   45.4885 dc         1 CLA      0.027600
    100 H162       83.2700   59.1265   43.3110 dc         1 CLA      0.002900
    101 H161       81.6230   58.8248   43.9588 dc         1 CLA      0.002900
    102 H152       82.2334   56.2543   44.0754 dc         1 CLA      0.029100
    103 H151       83.8502   56.5452   43.6429 dc         1 CLA      0.029100
    104 H143       80.2557   56.8025   42.5336 dc         1 CLA      0.063600
    105 H142       80.8533   58.2780   41.7940 dc         1 CLA      0.063600
    106 H141       80.3649   56.7327   40.8109 dc         1 CLA      0.063600
    107 H122       84.3555   57.3682   41.3698 dc         1 CLA      0.032500
    108 H121       83.0609   58.5883   41.0087 dc         1 CLA      0.032500
    109 H112       82.3510   57.2319   39.2177 dc         1 CLA      0.006600
    110 H111       83.2991   55.8397   39.4715 dc         1 CLA      0.006600
    111 H102       85.3297   56.8750   38.9147 dc         1 CLA      0.024100
    112 H101       84.4862   58.4345   38.6741 dc         1 CLA      0.024100
    113 HHD        71.2615   57.0662   39.4690 da         1 CLA      0.174300
    114 HHC        75.1214   60.8445   42.8976 da         1 CLA      0.136800
    115 HHB        79.5268   60.6370   38.2601 da         1 CLA      0.138300
    116 HBD        75.2003   57.2408   33.7318 dc         1 CLA      0.107700
    117 HAB        76.7785   62.5705   43.2872 da         1 CLA      0.155200
    118 H93        85.2125   57.8814   35.3961 dc         1 CLA      0.069500
    119 H92        85.6019   58.9116   36.7060 dc         1 CLA      0.069500
    120 H91        86.3110   57.3201   36.5777 dc         1 CLA      0.069500
    121 H8         83.3704   57.6907   36.7795 dc         1 CLA      0.029300
    122 H72        83.2066   55.3393   37.0419 dc         1 CLA      0.044400
    123 H71        84.9055   55.2416   37.1939 dc         1 CLA      0.044400
    124 H62        85.2644   55.3560   34.7796 dc         1 CLA      0.015600
    125 H61        83.6162   56.0703   34.5578 dc         1 CLA      0.015600
    126 H52        84.0600   53.1408   35.3832 dc         1 CLA      0.033200
    127 H51        83.8110   53.7530   33.7810 dc         1 CLA      0.033200
    128 H43        82.1031   51.9667   36.1725 dc         1 CLA      0.037000
    129 H42        80.4902   52.3072   35.4931 dc         1 CLA      0.037000
    130 H41        81.7561   51.7331   34.4027 dc         1 CLA      0.037000
    131 H3A        79.4233   59.8678   35.7337 dc         1 CLA      0.041100
    132 H2A        78.3781   57.1631   35.2385 dc         1 CLA      0.083100
    133 H2         80.8692   55.3218   35.4504 da         1 CLA      0.180900
    134 H18        83.5434   60.8452   45.6529 dc         1 CLA     -0.003900
    135 H13        82.5307   55.6928   41.7256 dc         1 CLA      0.019700
    136 H12        79.6678   54.5412   33.4089 dc         1 CLA      0.120400
    137 H11        81.1170   54.8490   32.4380 dc         1 CLA      0.120400
    138 C1         68.0240   60.7073   49.6782 Z1         2 LUT      0.509236
    139 C2         67.7991   61.3316   51.0610 Z2         2 LUT     -0.434695
    140 C3         66.3926   61.8779   51.1749 Z3         2 LUT      0.437453
    141 O3         66.3447   62.6032   52.4188 S1         2 LUT     -0.547129
    142 C4         66.2394   62.9711   50.1234 Z4         2 LUT     -0.468603
    143 C5         66.5857   62.5474   48.7214 Z5         2 LUT      0.279246
    144 C6         67.3969   61.5097   48.4272 Z6         2 LUT     -0.305473
    145 C7         68.0647   61.2386   47.1105 Z7         2 LUT      0.069402
    146 C8         68.9215   62.0511   46.4028 Z8         2 LUT     -0.191631
    147 C9         69.6094   61.7990   45.1056 Z9         2 LUT      0.196698
    148 C10        70.5108   62.6755   44.6746 Y1         2 LUT     -0.208611
    149 C11        71.1899   62.7497   43.4074 Y2         2 LUT      0.030784
    150 C12        72.3535   63.4448   43.1450 Y3         2 LUT     -0.220316
    151 C13        73.0832   63.5223   41.9156 Y4         2 LUT      0.215937
    152 C14        74.2141   64.3544   41.9322 Y5         2 LUT     -0.185793
    153 C15        75.2949   64.4741   40.9794 Y6         2 LUT     -0.057835
    154 C16        67.5457   59.1840   49.7554 Y7         2 LUT     -0.405615
    155 C17        69.5776   60.3735   49.4419 Y7         2 LUT     -0.405615
    156 C18        66.4213   63.7913   47.8206 Y9         2 LUT     -0.369639
    157 C19        69.1254   60.6306   44.3105 W1         2 LUT     -0.333362
    158 C20        72.4390   62.8877   40.7303 W2         2 LUT     -0.323439
    159 C21        87.0388   65.5233   35.2797 Z1         2 LUT      0.406104
    160 C22        87.9543   65.0940   34.1826 Z2         2 LUT     -0.404965
    161 C23        88.3196   66.2473   33.2368 Z3         2 LUT      0.391255
    162 O23        89.1523   65.6442   32.1991 S1         2 LUT     -0.528210
    163 C24        87.0133   66.9382   32.8021 W6         2 LUT     -0.258361
    164 C25        85.8625   66.9633   33.4677 Z5         2 LUT      0.133546
    165 C26        85.6857   66.0862   34.7115 W8         2 LUT     -0.147008
    166 C27        84.8000   66.7441   35.7542 Z7         2 LUT      0.023843
    167 C28        83.5888   66.3020   36.1547 Z8         2 LUT     -0.216987
    168 C29        82.7708   66.7336   37.2880 Z9         2 LUT      0.206524
    169 C30        81.7541   65.9193   37.6535 Y1         2 LUT     -0.215556
    170 C31        80.8951   66.1773   38.8452 Y2         2 LUT      0.025142
    171 C32        79.8427   65.3770   39.2115 Y3         2 LUT     -0.212209
    172 C33        78.9904   65.5126   40.4160 Y4         2 LUT      0.240937
    173 C34        77.7531   64.8660   40.4171 Y5         2 LUT     -0.218862
    174 C35        76.5683   64.9650   41.2428 Y6         2 LUT     -0.023547
    175 C36        87.8278   66.4829   36.2569 Y7         2 LUT     -0.393485
    176 C37        86.7738   64.1962   36.0637 Y7         2 LUT     -0.393485
    177 C38        84.7501   67.9333   33.0171 Y9         2 LUT     -0.387526
    178 C39        83.3189   67.8885   38.1691 W1         2 LUT     -0.322618
    179 C40        79.1886   66.7020   41.3091 W2         2 LUT     -0.358472
    180 H403       78.7961   66.6700   42.2992 R7         2 LUT      0.097720
    181 H402       80.2140   66.9800   41.5244 R7         2 LUT      0.097720
    182 H401       78.6478   67.4748   40.8026 R7         2 LUT      0.097720
    183 H393       82.6681   68.7489   38.1681 R4         2 LUT      0.082505
    184 H392       83.3081   67.5307   39.1972 R4         2 LUT      0.082505
    185 H391       84.3211   68.2059   37.8780 R4         2 LUT      0.082505
    186 H383       85.0262   68.3477   32.0496 R1         2 LUT      0.104030
    187 H382       83.8403   67.4016   32.9198 R1         2 LUT      0.104030
    188 H381       84.6350   68.8176   33.6851 R1         2 LUT      0.104030
    189 H373       87.6870   63.5945   36.3096 T4         2 LUT      0.089537
    190 H372       86.3817   64.3376   37.0854 T4         2 LUT      0.089537
    191 H371       86.1832   63.4689   35.5546 T4         2 LUT      0.089537
    192 H363       88.8286   66.1812   36.5094 T4         2 LUT      0.089537
    193 H362       87.8823   67.4144   35.8015 T4         2 LUT      0.089537
    194 H361       87.3648   66.5549   37.3045 T4         2 LUT      0.089537
    195 H222       88.8725   64.6822   34.6466 U2         2 LUT      0.127376
    196 H221       87.3652   64.2739   33.6233 U2         2 LUT      0.127376
    197 H203       72.4442   61.7875   40.6984 R7         2 LUT      0.087068
    198 H202       71.4273   63.2896   40.6151 R7         2 LUT      0.087068
    199 H201       72.8807   63.2170   39.7682 R7         2 LUT      0.087068
    200 H193       68.2032   60.9708   43.8102 R4         2 LUT      0.089716
    201 H192       69.7931   60.3176   43.4785 R4         2 LUT      0.089716
    202 H191       68.9137   59.7312   44.9751 R4         2 LUT      0.089716
    203 H183       65.4138   64.2115   47.9194 R1         2 LUT      0.094572
    204 H182       67.1040   64.6155   48.0277 R1         2 LUT      0.094572
    205 H181       66.4542   63.4146   46.8390 R1         2 LUT      0.094572
    206 H173       69.9919   59.8545   50.2661 T4         2 LUT      0.093752
    207 H172       69.7592   59.7829   48.5094 T4         2 LUT      0.093752
    208 H171       70.1219   61.2726   49.4146 T4         2 LUT      0.093752
    209 H163       68.2019   58.6924   50.4249 T4         2 LUT      0.093752
    210 H162       66.5028   59.2057   50.0825 T4         2 LUT      0.093752
    211 H161       67.6074   58.6527   48.7761 T4         2 LUT      0.093752
    212 HO3        66.1252   61.9440   53.1462 Q1         2 LUT      0.300121
    213 H8         69.1276   62.9950   46.8266 U7         2 LUT      0.080784
    214 H7         67.8881   60.1871   46.8982 U6         2 LUT      0.042190
    215 H42        65.1505   63.3376   50.1461 U5         2 LUT      0.145166
    216 H41        66.7915   63.8521   50.4289 U5         2 LUT      0.145166
    217 H35        76.6868   65.4798   42.1935 T3         2 LUT      0.077919
    218 H34        77.6037   64.2800   39.4743 T2         2 LUT      0.073626
    219 H32        79.6603   64.5327   38.5769 T1         2 LUT      0.092510
    220 H31        81.1939   67.0538   39.4937 U9         2 LUT      0.070048
    221 H30        81.4952   65.0164   37.1026 U8         2 LUT      0.085442
    222 H3         65.6010   61.1075   50.8650 U3         2 LUT     -0.031596
    223 H28        83.0185   65.5044   35.6187 U7         2 LUT      0.084728
    224 H27        85.2269   67.6926   36.1107 U6         2 LUT      0.087291
    225 H26        85.1713   65.1986   34.2005 Q6         2 LUT      0.075325
    226 H24        87.1298   67.7089   31.9978 Q5         2 LUT      0.094482
    227 H23        88.9324   67.0013   33.8061 U3         2 LUT     -0.024869
    228 H22        68.0213   60.5776   51.7656 U2         2 LUT      0.127376
    229 H21        68.5366   62.1393   51.1248 U2         2 LUT      0.127376
    230 H15        75.1458   63.9319   40.0424 T3         2 LUT      0.093200
    231 H14        74.4632   64.8119   42.8538 T2         2 LUT      0.068865
    232 H12        72.8152   64.0517   43.9574 T1         2 LUT      0.095507
    233 H11        70.6557   62.2457   42.6711 U9         2 LUT      0.068930
    234 H10        70.8819   63.4248   45.3691 U8         2 LUT      0.083911
    235 H1         88.6387   65.2615   31.4516 Q1         2 LUT      0.297311
@<TRIPOS>BOND
    1     6     1 1
    2     7     2 1
    3     8     3 1
    4     9     4 1
    5    11     4 1
    6    12     6 1
    7    13     9 1
    8    16     9 1
    9    25     5 1
   10    25    16 1
   11    26    10 1
   12    26    17 1
   13    27    18 1
   14    28    14 1
   15    28    19 1
   16    29    12 1
   17    30    13 1
   18    31    24 1
   19    32     1 1
   20    32    25 1
   21    33    21 1
   22    33    26 1
   23    34    22 1
   24    34    27 1
   25    35    23 1
   26    35    28 1
   27    36    12 1
   28    36    24 1
   29    37    13 1
   30    37    15 1
   31    38    31 1
   32    39    20 1
   33    39    32 1
   34    40     2 1
   35    40    33 1
   36    41     3 1
   37    41    34 1
   38    42     4 1
   39    42    35 1
   40    43    38 1
   41    44     5 1
   42    44    17 1
   43    44    39 1
   44    45    10 1
   45    45    18 1
   46    45    40 1
   47    46    19 1
   48    46    41 1
   49    47    14 1
   50    47    16 1
   51    47    42 1
   52    48    38 1
   53    49    48 1
   54    50    49 1
   55    51    50 1
   56    52    51 1
   57    53    51 1
   58    54    53 1
   59    55    54 1
   60    56    55 1
   61    57    56 1
   62    58    56 1
   63    59    58 1
   64    60    59 1
   65    61    60 1
   66    62    61 1
   67    63    61 1
   68    64    27 1
   69    64    46 1
   70    65     5 1
   71    65    10 1
   72    65    64 1
   73    65    14 1
   74    66    23 1
   75    67    23 1
   76    68    23 1
   77    69    22 1
   78    70    22 1
   79    71    22 1
   80    72    21 1
   81    73    21 1
   82    74    21 1
   83    75    20 1
   84    76    20 1
   85    77    20 1
   86    78    15 1
   87    79    15 1
   88    80    15 1
   89    81     8 1
   90    82     8 1
   91    83     8 1
   92    84     7 1
   93    85     7 1
   94    86     6 1
   95    87     6 1
   96    88     3 1
   97    89     3 1
   98    90     1 1
   99    91     1 1
  100    92    63 1
  101    93    63 1
  102    94    63 1
  103    95    62 1
  104    96    62 1
  105    97    62 1
  106    98    60 1
  107    99    60 1
  108   100    59 1
  109   101    59 1
  110   102    58 1
  111   103    58 1
  112   104    57 1
  113   105    57 1
  114   106    57 1
  115   107    55 1
  116   108    55 1
  117   109    54 1
  118   110    54 1
  119   111    53 1
  120   112    53 1
  121   113    19 1
  122   114    18 1
  123   115    17 1
  124   116     9 1
  125   117     2 1
  126   118    52 1
  127   119    52 1
  128   120    52 1
  129   121    51 1
  130   122    50 1
  131   123    50 1
  132   124    49 1
  133   125    49 1
  134   126    48 1
  135   127    48 1
  136   128    43 1
  137   129    43 1
  138   130    43 1
  139   131    39 1
  140   132    32 1
  141   133    31 1
  142   134    61 1
  143   135    56 1
  144   136    24 1
  145   137    24 1
  146   139   138 1
  147   140   139 1
  148   141   140 1
  149   142   140 1
  150   143   142 1
  151   144   138 1
  152   144   143 1
  153   145   144 1
  154   146   145 1
  155   147   146 1
  156   148   147 1
  157   149   148 1
  158   150   149 1
  159   151   150 1
  160   152   151 1
  161   153   152 1
  162   154   138 1
  163   155   138 1
  164   156   143 1
  165   157   147 1
  166   158   151 1
  167   160   159 1
  168   161   160 1
  169   162   161 1
  170   163   161 1
  171   164   163 1
  172   165   159 1
  173   165   164 1
  174   166   165 1
  175   167   166 1
  176   168   167 1
  177   169   168 1
  178   170   169 1
  179   171   170 1
  180   172   171 1
  181   173   172 1
  182   174   153 1
  183   174   173 1
  184   175   159 1
  185   176   159 1
  186   177   164 1
  187   178   168 1
  188   179   172 1
  189   180   179 1
  190   181   179 1
  191   182   179 1
  192   183   178 1
  193   184   178 1
  194   185   178 1
  195   186   177 1
  196   187   177 1
  197   188   177 1
  198   189   176 1
  199   190   176 1
  200   191   176 1
  201   192   175 1
  202   193   175 1
  203   194   175 1
  204   195   160 1
  205   196   160 1
  206   197   158 1
  207   198   158 1
  208   199   158 1
  209   200   157 1
  210   201   157 1
  211   202   157 1
  212   203   156 1
  213   204   156 1
  214   205   156 1
  215   206   155 1
  216   207   155 1
  217   208   155 1
  218   209   154 1
  219   210   154 1
  220   211   154 1
  221   212   141 1
  222   213   146 1
  223   214   145 1
  224   215   142 1
  225   216   142 1
  226   217   174 1
  227   218   173 1
  228   219   171 1
  229   220   170 1
  230   221   169 1
  231   222   140 1
  232   223   167 1
  233   224   166 1
  234   225   165 1
  235   226   163 1
  236   227   161 1
  237   228   139 1
  238   229   139 1
  239   230   153 1
  240   231   152 1
  241   232   150 1
  242   233   149 1
  243   234   148 1
  244   235   162 1
  245   65    153 1
  246   65    174 1
@<TRIPOS>SUBSTRUCTURE
      1 CLA               1 ****               0 ****  **** 
      2 LUT             138 ****               0 ****  **** 
