@<TRIPOS>MOLECULE
Cpptraj generated mol2 file.
  235   246     2     0     0
SMALL
USER_CHARGES


@<TRIPOS>ATOM
      1 CAA        79.0270   59.2554   32.9707 a2         1 CLA     -0.055900
      2 CAB        79.5919   62.7199   42.1427 c8         1 CLA     -0.148500
      3 CAC        72.6162   58.3039   41.6848 a2         1 CLA     -0.012600
      4 CAD        74.9079   56.7180   34.0212 ck         1 CLA      0.398800
      5 NA         78.2577   59.4104   36.4357 ns         1 CLA     -0.225500
      6 CBA        80.2839   58.9929   32.0258 a2         1 CLA     -0.135000
      7 CBB        78.6921   63.0760   43.0717 c0         1 CLA     -0.395200
      8 CBC        72.4195   56.7362   41.5780 a3         1 CLA     -0.037700
      9 CBD        76.3667   57.1579   33.7901 a1         1 CLA     -0.053900
     10 NB         78.2796   60.8619   39.0517 nm         1 CLA     -0.295700
     11 OBD        74.2631   56.0597   33.2020 o2         1 CLA     -0.494600
     12 CGA        80.5548   57.5228   31.5277 c4         1 CLA      0.827000
     13 CGD        77.2472   56.0432   33.3170 c4         1 CLA      0.655300
     14 ND         75.5066   58.4891   37.0505 nm         1 CLA     -0.291600
     15 CED        77.7936   53.8155   33.2700 a3         1 CLA      0.005400
     16 CHA        76.8744   57.9114   35.0509 cs         1 CLA     -0.123800
     17 CHB        80.1728   60.6960   37.5122 aa         1 CLA     -0.291900
     18 CHC        77.0997   60.8147   41.2491 aa         1 CLA     -0.090400
     19 CHD        73.7175   58.2180   38.6896 aa         1 CLA     -0.052000
     20 CMA        81.5175   58.4202   35.7102 a3         1 CLA     -0.230700
     21 CMB        81.5674   62.5365   39.6307 a3         1 CLA     -0.180800
     22 CMC        74.8268   60.0176   43.3155 a3         1 CLA     -0.134000
     23 CMD        72.1457   56.9572   36.1809 a3         1 CLA     -0.141100
     24 C1         81.5269   55.4214   32.1736 a2         1 CLA      0.023000
     25 C1A        78.0991   58.5767   35.3426 ac         1 CLA     -0.015100
     26 C1B        79.5676   61.1119   38.7196 cr         1 CLA      0.054700
     27 C1C        75.9679   60.0463   40.9183 cn         1 CLA     -0.005600
     28 C1D        74.2255   58.0382   37.4290 ap         1 CLA     -0.047300
     29 O1A        80.1068   56.9429   30.5296 o2         1 CLA     -0.610800
     30 O1D        78.0101   56.1889   32.3543 o2         1 CLA     -0.558200
     31 C2         82.1880   54.9547   33.4794 c8         1 CLA     -0.325100
     32 C2A        79.3065   58.5834   34.3967 a1         1 CLA      0.098600
     33 C2B        80.2153   61.9089   39.7817 cb         1 CLA      0.088500
     34 C2C        74.9039   59.6189   41.8678 cb         1 CLA      0.053700
     35 C2D        73.5570   57.4258   36.2803 cb         1 CLA      0.058900
     36 O2A        81.1925   56.8093   32.4829 o1         1 CLA     -0.437200
     37 O2D        76.9933   54.8921   33.9672 o1         1 CLA     -0.357600
     38 C3         83.3782   54.3335   33.6279 c5         1 CLA      0.031200
     39 C3A        80.3931   59.2808   35.2743 a1         1 CLA      0.166800
     40 C3B        79.3242   62.0282   40.8463 cb         1 CLA      0.035000
     41 C3C        73.9750   58.8394   41.1325 cb         1 CLA     -0.089900
     42 C3D        74.5625   57.2565   35.3346 cb         1 CLA     -0.035900
     43 C4         83.4626   52.8259   33.5314 a3         1 CLA     -0.053300
     44 C4A        79.5538   59.9213   36.4762 ac         1 CLA      0.001800
     45 C4B        78.1404   61.2443   40.4305 cn         1 CLA     -0.020900
     46 C4C        74.4034   58.8948   39.7825 cr         1 CLA     -0.044400
     47 C4D        75.7130   57.9107   35.9153 c6         1 CLA     -0.046000
     48 C5         84.6579   54.9936   33.6062 a2         1 CLA     -0.070400
     49 C6         84.9293   56.0370   34.6852 a2         1 CLA      0.043900
     50 C7         84.6524   55.5621   36.1547 a2         1 CLA     -0.150000
     51 C8         85.5145   56.2289   37.3008 a1         1 CLA      0.064200
     52 C9         86.9451   55.6680   37.3454 a3         1 CLA     -0.259300
     53 C10        84.8006   56.0410   38.7215 a2         1 CLA     -0.071900
     54 C11        83.6908   57.0285   39.1277 a2         1 CLA      0.014500
     55 C12        83.3999   56.8680   40.5927 a2         1 CLA     -0.112100
     56 C13        81.9968   57.5203   41.0281 a1         1 CLA      0.089200
     57 C14        81.9740   59.0378   40.6851 a3         1 CLA     -0.239100
     58 C15        81.4978   57.2296   42.4405 a2         1 CLA     -0.102200
     59 C16        82.3162   57.7036   43.5929 a2         1 CLA      0.023900
     60 C17        81.7066   57.2060   44.8569 a2         1 CLA     -0.105700
     61 C18        82.3692   57.7477   46.2186 a1         1 CLA      0.206800
     62 C19        81.6832   57.1007   47.3724 a3         1 CLA     -0.280100
     63 C20        83.8630   57.3982   46.2416 a3         1 CLA     -0.280100
     64 NC         75.6056   59.6100   39.6773 nx         1 CLA     -0.309200
     65 MG         76.8621   59.7472   38.0586 mg         1 CLA      0.895000
     66 HMD3       71.7354   56.6062   37.1413 dc         1 CLA      0.064300
     67 HMD2       71.6275   57.8438   35.8940 dc         1 CLA      0.064300
     68 HMD1       71.8981   56.3369   35.3516 dc         1 CLA      0.064300
     69 HMC3       74.3423   60.9676   43.2211 dc         1 CLA      0.052100
     70 HMC2       74.2148   59.3730   43.9286 dc         1 CLA      0.052100
     71 HMC1       75.7989   60.0642   43.6643 dc         1 CLA      0.052100
     72 HMB3       81.5631   63.6417   39.6806 dc         1 CLA      0.063600
     73 HMB2       82.1301   62.0913   40.4354 dc         1 CLA      0.063600
     74 HMB1       81.9844   62.2544   38.6542 dc         1 CLA      0.063600
     75 HMA3       82.1138   58.9311   36.4513 dc         1 CLA      0.058300
     76 HMA2       81.1271   57.5474   36.1598 dc         1 CLA      0.058300
     77 HMA1       82.1917   58.1512   34.9342 dc         1 CLA      0.058300
     78 HED3       78.8471   53.9966   33.2810 dc         1 CLA      0.079300
     79 HED2       77.5125   52.8961   33.8793 dc         1 CLA      0.079300
     80 HED1       77.4984   53.6308   32.2469 dc         1 CLA      0.079300
     81 HBC3       72.4462   56.3540   40.5475 dc         1 CLA      0.016300
     82 HBC2       73.1052   56.2096   42.1816 dc         1 CLA      0.016300
     83 HBC1       71.4174   56.4898   41.9508 dc         1 CLA      0.016300
     84 HBB2       78.9859   63.5975   43.9706 da         1 CLA      0.183000
     85 HBB1       77.6107   62.8904   43.0567 da         1 CLA      0.183000
     86 HBA2       80.1672   59.5995   31.1229 dc         1 CLA      0.029400
     87 HBA1       81.0763   59.3094   32.6306 dc         1 CLA      0.029400
     88 HAC2       72.5699   58.5572   42.7450 dc         1 CLA      0.029300
     89 HAC1       71.7609   58.7644   41.2402 dc         1 CLA      0.029300
     90 HAA2       78.1755   58.7957   32.4980 dc         1 CLA      0.028700
     91 HAA1       78.6939   60.2895   33.1915 dc         1 CLA      0.028700
     92 H203       84.1473   57.5629   47.3196 dc         1 CLA      0.065600
     93 H202       84.0440   56.3597   45.9295 dc         1 CLA      0.065600
     94 H201       84.2955   58.1513   45.6498 dc         1 CLA      0.065600
     95 H193       80.5851   57.3617   47.3054 dc         1 CLA      0.065600
     96 H192       81.6837   56.0300   47.3781 dc         1 CLA      0.065600
     97 H191       82.0813   57.4856   48.4336 dc         1 CLA      0.065600
     98 H172       80.7026   57.6340   44.8537 dc         1 CLA      0.027600
     99 H171       81.6007   56.1861   44.8357 dc         1 CLA      0.027600
    100 H162       83.3363   57.3105   43.6009 dc         1 CLA      0.002900
    101 H161       82.3278   58.8308   43.6947 dc         1 CLA      0.002900
    102 H152       80.5642   57.7766   42.6231 dc         1 CLA      0.029100
    103 H151       81.3503   56.1476   42.5626 dc         1 CLA      0.029100
    104 H143       82.7188   59.5991   41.1089 dc         1 CLA      0.063600
    105 H142       81.9591   59.1581   39.6107 dc         1 CLA      0.063600
    106 H141       80.9503   59.3983   41.0284 dc         1 CLA      0.063600
    107 H122       83.3620   55.8422   40.8136 dc         1 CLA      0.032500
    108 H121       84.1634   57.3192   41.2485 dc         1 CLA      0.032500
    109 H112       84.1052   58.0129   38.9988 dc         1 CLA      0.006600
    110 H111       82.7086   56.8741   38.6107 dc         1 CLA      0.006600
    111 H102       84.3479   55.0483   38.8094 dc         1 CLA      0.024100
    112 H101       85.5997   56.0787   39.3836 dc         1 CLA      0.024100
    113 HHD        72.7575   57.8108   38.8412 da         1 CLA      0.174300
    114 HHC        77.1095   61.1119   42.2883 da         1 CLA      0.136800
    115 HHB        81.1635   61.1158   37.2881 da         1 CLA      0.138300
    116 HBD        76.3348   57.7673   32.9476 dc         1 CLA      0.107700
    117 HAB        80.6469   62.9582   42.2434 da         1 CLA      0.155200
    118 H93        87.3959   55.7056   36.3654 dc         1 CLA      0.069500
    119 H92        87.6042   56.3037   37.9725 dc         1 CLA      0.069500
    120 H91        86.9488   54.6203   37.6218 dc         1 CLA      0.069500
    121 H8         85.5780   57.2973   37.1799 dc         1 CLA      0.029300
    122 H72        83.5894   55.5485   36.4137 dc         1 CLA      0.044400
    123 H71        84.8360   54.5336   36.1366 dc         1 CLA      0.044400
    124 H62        85.9594   56.2984   34.5805 dc         1 CLA      0.015600
    125 H61        84.2782   56.8629   34.5786 dc         1 CLA      0.015600
    126 H52        85.4394   54.2177   33.4638 dc         1 CLA      0.033200
    127 H51        84.7621   55.5810   32.6895 dc         1 CLA      0.033200
    128 H43        82.5004   52.3062   33.3660 dc         1 CLA      0.037000
    129 H42        84.0363   52.5048   32.6575 dc         1 CLA      0.037000
    130 H41        84.0282   52.4227   34.4063 dc         1 CLA      0.037000
    131 H3A        80.7801   60.1784   34.7251 dc         1 CLA      0.041100
    132 H2A        79.5852   57.5516   34.2160 dc         1 CLA      0.083100
    133 H2         81.6390   55.0940   34.4202 da         1 CLA      0.180900
    134 H18        82.2543   58.8300   46.1594 dc         1 CLA     -0.003900
    135 H13        81.2749   56.8710   40.4948 dc         1 CLA      0.019700
    136 H12        80.6130   54.7995   32.0048 dc         1 CLA      0.120400
    137 H11        82.1769   55.2159   31.3773 dc         1 CLA      0.120400
    138 C1         69.2314   60.8809   48.9074 Z1         2 LUT      0.509236
    139 C2         68.9121   61.6593   50.1068 Z2         2 LUT     -0.434695
    140 C3         67.4092   61.9291   50.3133 Z3         2 LUT      0.437453
    141 O3         67.1883   62.8948   51.4378 S1         2 LUT     -0.547129
    142 C4         66.9186   62.5919   49.0194 Z4         2 LUT     -0.468603
    143 C5         67.5480   62.2516   47.7314 Z5         2 LUT      0.279246
    144 C6         68.5225   61.3592   47.6471 Z6         2 LUT     -0.305473
    145 C7         69.1708   61.0623   46.4062 Z7         2 LUT      0.069402
    146 C8         70.1292   61.7754   45.7262 Z8         2 LUT     -0.191631
    147 C9         70.5235   61.5328   44.3487 Z9         2 LUT      0.196698
    148 C10        71.5270   62.2695   43.8362 Y1         2 LUT     -0.208611
    149 C11        72.1295   62.2877   42.5222 Y2         2 LUT      0.030784
    150 C12        73.1672   63.1537   42.2574 Y3         2 LUT     -0.220316
    151 C13        74.0499   63.1490   41.1021 Y4         2 LUT      0.215937
    152 C14        75.1878   63.8394   41.3593 Y5         2 LUT     -0.185793
    153 C15        76.2449   64.0746   40.4194 Y6         2 LUT     -0.057835
    154 C16        68.7160   59.4605   49.1172 Y7         2 LUT     -0.405615
    155 C17        70.7854   60.6212   48.9122 Y7         2 LUT     -0.405615
    156 C18        67.1615   63.2509   46.7451 Y9         2 LUT     -0.369639
    157 C19        69.8390   60.4383   43.5278 W1         2 LUT     -0.333362
    158 C20        73.5458   62.6473   39.8035 W2         2 LUT     -0.323439
    159 C21        87.3331   66.2076   34.2379 Z1         2 LUT      0.406104
    160 C22        87.9962   65.8079   32.8636 Z2         2 LUT     -0.404965
    161 C23        87.8879   66.8376   31.8459 Z3         2 LUT      0.391255
    162 O23        88.7310   66.3705   30.7645 S1         2 LUT     -0.528210
    163 C24        86.4741   67.4221   31.6662 W6         2 LUT     -0.258361
    164 C25        85.4697   67.2687   32.5700 Z5         2 LUT      0.133546
    165 C26        85.7538   66.5046   33.9123 W8         2 LUT     -0.147008
    166 C27        84.9874   67.1592   35.0668 Z7         2 LUT      0.023843
    167 C28        83.9270   66.6864   35.7601 Z8         2 LUT     -0.216987
    168 C29        83.3747   67.1551   36.9850 Z9         2 LUT      0.206524
    169 C30        82.3254   66.4477   37.5012 Y1         2 LUT     -0.215556
    170 C31        81.5371   66.6151   38.7184 Y2         2 LUT      0.025142
    171 C32        80.3969   65.8767   38.8105 Y3         2 LUT     -0.212209
    172 C33        79.4922   65.7869   39.9038 Y4         2 LUT      0.240937
    173 C34        78.3944   64.9644   39.8905 Y5         2 LUT     -0.218862
    174 C35        77.3015   64.8399   40.7226 Y6         2 LUT     -0.023547
    175 C36        88.0357   67.3081   34.9468 Y7         2 LUT     -0.393485
    176 C37        87.4720   64.9267   35.1304 Y7         2 LUT     -0.393485
    177 C38        84.1034   67.8014   32.2645 Y9         2 LUT     -0.387526
    178 C39        84.0293   68.3319   37.7328 W1         2 LUT     -0.322618
    179 C40        80.0296   66.2999   41.2204 W2         2 LUT     -0.358472
    180 H403       81.0266   66.2188   41.2903 R7         2 LUT      0.097720
    181 H402       79.9021   67.3800   41.3750 R7         2 LUT      0.097720
    182 H401       79.6822   65.8014   42.1274 R7         2 LUT      0.097720
    183 H393       83.5852   68.5123   38.6771 R4         2 LUT      0.082505
    184 H392       85.0458   68.0983   37.9913 R4         2 LUT      0.082505
    185 H391       83.9555   69.2251   37.1388 R4         2 LUT      0.082505
    186 H383       83.3679   66.9134   32.2344 R1         2 LUT      0.104030
    187 H382       83.6690   68.4133   33.0845 R1         2 LUT      0.104030
    188 H381       84.0479   68.3496   31.3181 R1         2 LUT      0.104030
    189 H373       86.7272   64.1468   34.7585 T4         2 LUT      0.089537
    190 H372       88.5205   64.5760   34.9830 T4         2 LUT      0.089537
    191 H371       87.3089   65.0953   36.2160 T4         2 LUT      0.089537
    192 H363       89.1106   67.1379   34.9948 T4         2 LUT      0.089537
    193 H362       87.8991   68.2111   34.4587 T4         2 LUT      0.089537
    194 H361       87.5734   67.4112   35.9303 T4         2 LUT      0.089537
    195 H222       89.1088   65.6202   32.9780 U2         2 LUT      0.127376
    196 H221       87.5400   64.8432   32.5142 U2         2 LUT      0.127376
    197 H203       73.5439   61.5073   39.7372 R7         2 LUT      0.087068
    198 H202       72.5031   62.9614   39.6397 R7         2 LUT      0.087068
    199 H201       74.0398   62.9406   38.9043 R7         2 LUT      0.087068
    200 H193       70.2944   59.5181   43.8845 R4         2 LUT      0.089716
    201 H192       68.8429   60.2798   43.7701 R4         2 LUT      0.089716
    202 H191       69.9865   60.4417   42.4679 R4         2 LUT      0.089716
    203 H183       67.7646   64.1893   46.8608 R1         2 LUT      0.094572
    204 H182       67.4250   63.0231   45.7283 R1         2 LUT      0.094572
    205 H181       66.1505   63.5984   46.8984 R1         2 LUT      0.094572
    206 H173       70.9799   59.8557   49.6755 T4         2 LUT      0.093752
    207 H172       71.0566   60.1348   47.9688 T4         2 LUT      0.093752
    208 H171       71.4359   61.4636   48.9518 T4         2 LUT      0.093752
    209 H163       68.9500   59.1014   50.1108 T4         2 LUT      0.093752
    210 H162       67.5751   59.3193   49.1293 T4         2 LUT      0.093752
    211 H161       69.1633   58.7330   48.4320 T4         2 LUT      0.093752
    212 HO3        66.8243   62.4034   52.1833 Q1         2 LUT      0.300121
    213 H8         70.5323   62.6794   46.1098 U7         2 LUT      0.080784
    214 H7         68.9116   60.1663   45.8964 U6         2 LUT      0.042190
    215 H42        65.8059   62.6520   48.9346 U5         2 LUT      0.145166
    216 H41        67.1228   63.6824   49.1355 U5         2 LUT      0.145166
    217 H35        77.3592   65.4106   41.6312 T3         2 LUT      0.077919
    218 H34        78.3530   64.1823   39.1227 T2         2 LUT      0.073626
    219 H32        80.1153   65.1874   37.9670 T1         2 LUT      0.092510
    220 H31        82.0006   67.3025   39.3790 U9         2 LUT      0.070048
    221 H30        81.8791   65.6475   36.9019 U8         2 LUT      0.085442
    222 H3         66.9090   60.9777   50.3592 U3         2 LUT     -0.031596
    223 H28        83.5172   65.7601   35.3495 U7         2 LUT      0.084728
    224 H27        85.4335   68.1184   35.3569 U6         2 LUT      0.087291
    225 H26        85.3123   65.4924   33.7489 Q6         2 LUT      0.075325
    226 H24        86.1963   67.9613   30.7064 Q5         2 LUT      0.094482
    227 H23        88.3572   67.7030   32.2312 U3         2 LUT     -0.024869
    228 H22        69.3970   61.2347   51.0122 U2         2 LUT      0.127376
    229 H21        69.3835   62.6709   49.9792 U2         2 LUT      0.127376
    230 H15        76.3139   63.3911   39.5776 T3         2 LUT      0.093200
    231 H14        75.2090   64.4123   42.3163 T2         2 LUT      0.068865
    232 H12        73.3857   63.7575   43.1902 T1         2 LUT      0.095507
    233 H11        71.9543   61.5207   41.7334 U9         2 LUT      0.068930
    234 H10        71.9636   63.0137   44.5120 U8         2 LUT      0.083911
    235 H1         88.1053   65.9819   30.1147 Q1         2 LUT      0.297311
@<TRIPOS>BOND
    1     6     1 1
    2     7     2 1
    3     8     3 1
    4     9     4 1
    5    11     4 1
    6    12     6 1
    7    13     9 1
    8    16     9 1
    9    25     5 1
   10    25    16 1
   11    26    10 1
   12    26    17 1
   13    27    18 1
   14    28    14 1
   15    28    19 1
   16    29    12 1
   17    30    13 1
   18    31    24 1
   19    32     1 1
   20    32    25 1
   21    33    21 1
   22    33    26 1
   23    34    22 1
   24    34    27 1
   25    35    23 1
   26    35    28 1
   27    36    12 1
   28    36    24 1
   29    37    13 1
   30    37    15 1
   31    38    31 1
   32    39    20 1
   33    39    32 1
   34    40     2 1
   35    40    33 1
   36    41     3 1
   37    41    34 1
   38    42     4 1
   39    42    35 1
   40    43    38 1
   41    44     5 1
   42    44    17 1
   43    44    39 1
   44    45    10 1
   45    45    18 1
   46    45    40 1
   47    46    19 1
   48    46    41 1
   49    47    14 1
   50    47    16 1
   51    47    42 1
   52    48    38 1
   53    49    48 1
   54    50    49 1
   55    51    50 1
   56    52    51 1
   57    53    51 1
   58    54    53 1
   59    55    54 1
   60    56    55 1
   61    57    56 1
   62    58    56 1
   63    59    58 1
   64    60    59 1
   65    61    60 1
   66    62    61 1
   67    63    61 1
   68    64    27 1
   69    64    46 1
   70    65     5 1
   71    65    10 1
   72    65    64 1
   73    65    14 1
   74    66    23 1
   75    67    23 1
   76    68    23 1
   77    69    22 1
   78    70    22 1
   79    71    22 1
   80    72    21 1
   81    73    21 1
   82    74    21 1
   83    75    20 1
   84    76    20 1
   85    77    20 1
   86    78    15 1
   87    79    15 1
   88    80    15 1
   89    81     8 1
   90    82     8 1
   91    83     8 1
   92    84     7 1
   93    85     7 1
   94    86     6 1
   95    87     6 1
   96    88     3 1
   97    89     3 1
   98    90     1 1
   99    91     1 1
  100    92    63 1
  101    93    63 1
  102    94    63 1
  103    95    62 1
  104    96    62 1
  105    97    62 1
  106    98    60 1
  107    99    60 1
  108   100    59 1
  109   101    59 1
  110   102    58 1
  111   103    58 1
  112   104    57 1
  113   105    57 1
  114   106    57 1
  115   107    55 1
  116   108    55 1
  117   109    54 1
  118   110    54 1
  119   111    53 1
  120   112    53 1
  121   113    19 1
  122   114    18 1
  123   115    17 1
  124   116     9 1
  125   117     2 1
  126   118    52 1
  127   119    52 1
  128   120    52 1
  129   121    51 1
  130   122    50 1
  131   123    50 1
  132   124    49 1
  133   125    49 1
  134   126    48 1
  135   127    48 1
  136   128    43 1
  137   129    43 1
  138   130    43 1
  139   131    39 1
  140   132    32 1
  141   133    31 1
  142   134    61 1
  143   135    56 1
  144   136    24 1
  145   137    24 1
  146   139   138 1
  147   140   139 1
  148   141   140 1
  149   142   140 1
  150   143   142 1
  151   144   138 1
  152   144   143 1
  153   145   144 1
  154   146   145 1
  155   147   146 1
  156   148   147 1
  157   149   148 1
  158   150   149 1
  159   151   150 1
  160   152   151 1
  161   153   152 1
  162   154   138 1
  163   155   138 1
  164   156   143 1
  165   157   147 1
  166   158   151 1
  167   160   159 1
  168   161   160 1
  169   162   161 1
  170   163   161 1
  171   164   163 1
  172   165   159 1
  173   165   164 1
  174   166   165 1
  175   167   166 1
  176   168   167 1
  177   169   168 1
  178   170   169 1
  179   171   170 1
  180   172   171 1
  181   173   172 1
  182   174   153 1
  183   174   173 1
  184   175   159 1
  185   176   159 1
  186   177   164 1
  187   178   168 1
  188   179   172 1
  189   180   179 1
  190   181   179 1
  191   182   179 1
  192   183   178 1
  193   184   178 1
  194   185   178 1
  195   186   177 1
  196   187   177 1
  197   188   177 1
  198   189   176 1
  199   190   176 1
  200   191   176 1
  201   192   175 1
  202   193   175 1
  203   194   175 1
  204   195   160 1
  205   196   160 1
  206   197   158 1
  207   198   158 1
  208   199   158 1
  209   200   157 1
  210   201   157 1
  211   202   157 1
  212   203   156 1
  213   204   156 1
  214   205   156 1
  215   206   155 1
  216   207   155 1
  217   208   155 1
  218   209   154 1
  219   210   154 1
  220   211   154 1
  221   212   141 1
  222   213   146 1
  223   214   145 1
  224   215   142 1
  225   216   142 1
  226   217   174 1
  227   218   173 1
  228   219   171 1
  229   220   170 1
  230   221   169 1
  231   222   140 1
  232   223   167 1
  233   224   166 1
  234   225   165 1
  235   226   163 1
  236   227   161 1
  237   228   139 1
  238   229   139 1
  239   230   153 1
  240   231   152 1
  241   232   150 1
  242   233   149 1
  243   234   148 1
  244   235   162 1
  245   65    153 1
  246   65    174 1
@<TRIPOS>SUBSTRUCTURE
      1 CLA               1 ****               0 ****  **** 
      2 LUT             138 ****               0 ****  **** 
