@<TRIPOS>MOLECULE
Cpptraj generated mol2 file.
  235   246     2     0     0
SMALL
USER_CHARGES


@<TRIPOS>ATOM
      1 CAA        80.4193   58.4973   34.3437 a2         1 CLA     -0.055900
      2 CAB        80.3641   62.0896   43.2736 c8         1 CLA     -0.148500
      3 CAC        73.4105   57.7188   42.7421 a2         1 CLA     -0.012600
      4 CAD        76.2141   55.8379   35.3792 ck         1 CLA      0.398800
      5 NA         79.1589   58.7051   37.7451 ns         1 CLA     -0.225500
      6 CBA        81.5898   58.2688   33.4437 a2         1 CLA     -0.135000
      7 CBB        81.5772   61.9713   43.8517 c0         1 CLA     -0.395200
      8 CBC        73.4914   56.2089   43.0472 a3         1 CLA     -0.037700
      9 CBD        77.6135   56.4635   35.0150 a1         1 CLA     -0.053900
     10 NB         79.0939   60.1897   40.3282 nm         1 CLA     -0.295700
     11 OBD        75.7577   54.8960   34.7445 o2         1 CLA     -0.494600
     12 CGA        81.9657   56.8894   32.9566 c4         1 CLA      0.827000
     13 CGD        78.5824   55.3215   34.7789 c4         1 CLA      0.655300
     14 ND         76.4600   57.8421   38.2406 nm         1 CLA     -0.291600
     15 CED        79.5949   53.3974   35.6950 a3         1 CLA      0.005400
     16 CHA        77.8799   57.4035   36.1777 cs         1 CLA     -0.123800
     17 CHB        80.9323   60.0827   38.6895 aa         1 CLA     -0.291900
     18 CHC        77.8164   60.2841   42.4089 aa         1 CLA     -0.090400
     19 CHD        74.6514   57.5964   39.8764 aa         1 CLA     -0.052000
     20 CMA        82.3835   57.5898   37.4400 a3         1 CLA     -0.230700
     21 CMB        82.3082   62.0056   40.7236 a3         1 CLA     -0.180800
     22 CMC        75.5858   59.8292   44.4620 a3         1 CLA     -0.134000
     23 CMD        73.3833   55.8609   37.5792 a3         1 CLA     -0.141100
     24 C1         82.7480   54.7978   33.7350 a2         1 CLA      0.023000
     25 C1A        79.0953   57.9886   36.5559 ac         1 CLA     -0.015100
     26 C1B        80.2838   60.6116   39.8203 cr         1 CLA      0.054700
     27 C1C        76.7016   59.5360   42.0590 cn         1 CLA     -0.005600
     28 C1D        75.1354   57.4064   38.5616 ap         1 CLA     -0.047300
     29 O1A        81.6692   56.4107   31.8469 o2         1 CLA     -0.610800
     30 O1D        79.2013   55.1430   33.7214 o2         1 CLA     -0.558200
     31 C2         83.3392   54.2541   34.9859 c8         1 CLA     -0.325100
     32 C2A        80.4555   57.8456   35.7535 a1         1 CLA      0.098600
     33 C2B        80.9190   61.4312   40.8247 cb         1 CLA      0.088500
     34 C2C        75.6567   59.2343   43.0041 cb         1 CLA      0.053700
     35 C2D        74.6257   56.5757   37.4778 cb         1 CLA      0.058900
     36 O2A        82.6762   56.2684   33.9595 o1         1 CLA     -0.437200
     37 O2D        78.8200   54.5975   35.9130 o1         1 CLA     -0.357600
     38 C3         84.4938   53.5497   35.1886 c5         1 CLA      0.031200
     39 C3A        81.4250   58.5427   36.7667 a1         1 CLA      0.166800
     40 C3B        80.1748   61.4065   41.9871 cb         1 CLA      0.035000
     41 C3C        74.7668   58.3341   42.3292 cb         1 CLA     -0.089900
     42 C3D        75.6727   56.5031   36.5285 cb         1 CLA     -0.035900
     43 C4         84.5118   52.1139   34.9673 a3         1 CLA     -0.053300
     44 C4A        80.3957   59.2070   37.7640 ac         1 CLA      0.001800
     45 C4B        78.9734   60.5943   41.6081 cn         1 CLA     -0.020900
     46 C4C        75.2685   58.2726   40.9008 cr         1 CLA     -0.044400
     47 C4D        76.7193   57.3201   37.0614 c6         1 CLA     -0.046000
     48 C5         85.7833   54.2905   35.5142 a2         1 CLA     -0.070400
     49 C6         85.8945   54.5504   37.0309 a2         1 CLA      0.043900
     50 C7         87.2543   55.3113   37.3453 a2         1 CLA     -0.150000
     51 C8         87.4107   55.9824   38.7740 a1         1 CLA      0.064200
     52 C9         86.5061   57.2152   38.8071 a3         1 CLA     -0.259300
     53 C10        88.9341   56.3873   39.0189 a2         1 CLA     -0.071900
     54 C11        89.3269   56.8543   40.4138 a2         1 CLA      0.014500
     55 C12        88.9878   55.8697   41.5450 a2         1 CLA     -0.112100
     56 C13        89.5831   56.1387   43.0228 a1         1 CLA      0.089200
     57 C14        89.5269   54.9374   43.9685 a3         1 CLA     -0.239100
     58 C15        89.0689   57.4552   43.6660 a2         1 CLA     -0.102200
     59 C16        87.6018   57.7265   43.5683 a2         1 CLA      0.023900
     60 C17        87.2422   58.9689   44.4301 a2         1 CLA     -0.105700
     61 C18        85.6516   59.3430   44.4437 a1         1 CLA      0.206800
     62 C19        85.2660   60.1302   45.7378 a3         1 CLA     -0.280100
     63 C20        85.2760   60.1063   43.1745 a3         1 CLA     -0.280100
     64 NC         76.4530   59.0285   40.8275 nx         1 CLA     -0.309200
     65 MG         77.6622   59.0838   39.2115 mg         1 CLA      0.895000
     66 HMD3       73.2758   55.1082   36.8026 dc         1 CLA      0.064300
     67 HMD2       73.3803   55.5560   38.6155 dc         1 CLA      0.064300
     68 HMD1       72.5394   56.5345   37.3148 dc         1 CLA      0.064300
     69 HMC3       74.7955   59.4073   45.0826 dc         1 CLA      0.052100
     70 HMC2       76.5200   59.5535   45.0015 dc         1 CLA      0.052100
     71 HMC1       75.6079   60.9097   44.2755 dc         1 CLA      0.052100
     72 HMB3       83.0275   61.2068   40.6410 dc         1 CLA      0.063600
     73 HMB2       82.2911   62.5362   39.7474 dc         1 CLA      0.063600
     74 HMB1       82.5781   62.7030   41.5231 dc         1 CLA      0.063600
     75 HMA3       82.9215   56.9897   36.6937 dc         1 CLA      0.058300
     76 HMA2       83.0718   58.1925   38.1010 dc         1 CLA      0.058300
     77 HMA1       81.7524   56.9319   38.0249 dc         1 CLA      0.058300
     78 HED3       79.3490   52.9478   34.6576 dc         1 CLA      0.079300
     79 HED2       80.6606   53.6115   35.6554 dc         1 CLA      0.079300
     80 HED1       79.4058   52.7751   36.4903 dc         1 CLA      0.079300
     81 HBC3       73.6194   55.6366   42.1501 dc         1 CLA      0.016300
     82 HBC2       74.2983   56.0386   43.8156 dc         1 CLA      0.016300
     83 HBC1       72.4596   55.7974   43.3700 dc         1 CLA      0.016300
     84 HBB2       81.7285   62.4710   44.8216 da         1 CLA      0.183000
     85 HBB1       82.3610   61.4293   43.3182 da         1 CLA      0.183000
     86 HBA2       81.5383   58.8552   32.5349 dc         1 CLA      0.029400
     87 HBA1       82.4728   58.6419   33.9477 dc         1 CLA      0.029400
     88 HAC2       73.0374   58.0650   43.6878 dc         1 CLA      0.029300
     89 HAC1       72.6370   57.9047   42.0238 dc         1 CLA      0.029300
     90 HAA2       79.5511   58.1104   33.7506 dc         1 CLA      0.028700
     91 HAA1       80.2032   59.5392   34.5015 dc         1 CLA      0.028700
     92 H203       85.7984   61.0183   43.2872 dc         1 CLA      0.065600
     93 H202       85.6271   59.4386   42.4091 dc         1 CLA      0.065600
     94 H201       84.2034   60.3287   43.1491 dc         1 CLA      0.065600
     95 H193       85.4396   59.5320   46.6017 dc         1 CLA      0.065600
     96 H192       85.9250   61.0484   45.7192 dc         1 CLA      0.065600
     97 H191       84.2038   60.4891   45.6968 dc         1 CLA      0.065600
     98 H172       87.4677   58.7471   45.4861 dc         1 CLA      0.027600
     99 H171       87.8702   59.8332   44.0917 dc         1 CLA      0.027600
    100 H162       87.2647   57.8364   42.4705 dc         1 CLA      0.002900
    101 H161       87.0086   56.9336   43.9534 dc         1 CLA      0.002900
    102 H152       89.3749   57.4441   44.7302 dc         1 CLA      0.029100
    103 H151       89.5914   58.2854   43.1494 dc         1 CLA      0.029100
    104 H143       90.3564   54.1843   43.7639 dc         1 CLA      0.063600
    105 H142       89.5792   55.3033   44.9999 dc         1 CLA      0.063600
    106 H141       88.4710   54.6266   43.9556 dc         1 CLA      0.063600
    107 H122       87.8947   55.7854   41.6045 dc         1 CLA      0.032500
    108 H121       89.4123   54.8970   41.2264 dc         1 CLA      0.032500
    109 H112       90.3744   56.9752   40.3408 dc         1 CLA      0.006600
    110 H111       88.7820   57.8182   40.4748 dc         1 CLA      0.006600
    111 H102       89.5136   55.4325   38.8241 dc         1 CLA      0.024100
    112 H101       89.3062   57.1744   38.3713 dc         1 CLA      0.024100
    113 HHD        73.7226   57.0491   40.0847 da         1 CLA      0.174300
    114 HHC        77.7942   60.6852   43.4517 da         1 CLA      0.136800
    115 HHB        81.8764   60.5482   38.5078 da         1 CLA      0.138300
    116 HBD        77.5723   56.9553   34.0134 dc         1 CLA      0.107700
    117 HAB        79.4860   62.6507   43.6701 da         1 CLA      0.155200
    118 H93        86.6977   57.8264   39.7166 dc         1 CLA      0.069500
    119 H92        86.7340   57.7997   37.8648 dc         1 CLA      0.069500
    120 H91        85.5604   56.7834   38.8761 dc         1 CLA      0.069500
    121 H8         87.1140   55.2908   39.5176 dc         1 CLA      0.029300
    122 H72        88.0214   54.4901   37.2703 dc         1 CLA      0.044400
    123 H71        87.3755   56.0830   36.5784 dc         1 CLA      0.044400
    124 H62        85.0225   55.1321   37.2715 dc         1 CLA      0.015600
    125 H61        85.9186   53.5696   37.5145 dc         1 CLA      0.015600
    126 H52        86.6427   53.8251   35.1709 dc         1 CLA      0.033200
    127 H51        85.7322   55.2021   34.9393 dc         1 CLA      0.033200
    128 H43        84.9369   51.6681   35.9239 dc         1 CLA      0.037000
    129 H42        83.5340   51.7457   34.6835 dc         1 CLA      0.037000
    130 H41        85.2202   51.9207   34.2382 dc         1 CLA      0.037000
    131 H3A        82.0009   59.3617   36.2334 dc         1 CLA      0.041100
    132 H2A        80.7049   56.7184   35.6995 dc         1 CLA      0.083100
    133 H2         82.7262   54.4556   35.8729 da         1 CLA      0.180900
    134 H18        85.1414   58.3867   44.4758 dc         1 CLA     -0.003900
    135 H13        90.6665   56.3277   42.8377 dc         1 CLA      0.019700
    136 H12        81.7526   54.3959   33.6969 dc         1 CLA      0.120400
    137 H11        83.3317   54.6101   32.7824 dc         1 CLA      0.120400
    138 C1         69.6834   61.9011   50.1581 Z1         2 LUT      0.509236
    139 C2         68.1667   61.9342   50.5916 Z2         2 LUT     -0.434695
    140 C3         67.5051   63.2034   50.9415 Z3         2 LUT      0.437453
    141 O3         67.7274   63.5749   52.3680 S1         2 LUT     -0.547129
    142 C4         68.0511   64.3019   50.0821 Z4         2 LUT     -0.468603
    143 C5         68.8329   63.8084   48.8677 Z5         2 LUT      0.279246
    144 C6         69.6085   62.7451   48.8848 Z6         2 LUT     -0.305473
    145 C7         70.0228   62.1807   47.5655 Z7         2 LUT      0.069402
    146 C8         70.9789   62.8054   46.8381 Z8         2 LUT     -0.191631
    147 C9         71.5372   62.2953   45.5870 Z9         2 LUT      0.196698
    148 C10        72.5630   63.0726   44.9974 Y1         2 LUT     -0.208611
    149 C11        73.1879   62.8310   43.7467 Y2         2 LUT      0.030784
    150 C12        74.1876   63.7352   43.3106 Y3         2 LUT     -0.220316
    151 C13        75.1267   63.5653   42.1295 Y4         2 LUT      0.215937
    152 C14        76.2378   64.3396   41.9684 Y5         2 LUT     -0.185793
    153 C15        77.3386   64.2826   41.0085 Y6         2 LUT     -0.057835
    154 C16        70.0852   60.4567   50.0246 Y7         2 LUT     -0.405615
    155 C17        70.4957   62.4312   51.3723 Y7         2 LUT     -0.405615
    156 C18        68.5151   64.6173   47.6331 Y9         2 LUT     -0.369639
    157 C19        71.1775   60.9270   45.0943 W1         2 LUT     -0.333362
    158 C20        74.7289   62.5310   41.1069 W2         2 LUT     -0.323439
    159 C21        88.2916   65.4115   34.7524 Z1         2 LUT      0.406104
    160 C22        88.9710   64.6502   33.6372 Z2         2 LUT     -0.404965
    161 C23        89.2495   65.2777   32.2931 Z3         2 LUT      0.391255
    162 O23        89.4180   64.2521   31.3222 S1         2 LUT     -0.528210
    163 C24        88.1806   66.3374   31.9529 W6         2 LUT     -0.258361
    164 C25        87.1702   66.6379   32.7606 Z5         2 LUT      0.133546
    165 C26        86.9434   65.9283   34.1552 W8         2 LUT     -0.147008
    166 C27        86.1180   66.7077   35.2307 Z7         2 LUT      0.023843
    167 C28        85.0247   66.2015   35.8693 Z8         2 LUT     -0.216987
    168 C29        84.4483   66.6705   37.1014 Z9         2 LUT      0.206524
    169 C30        83.4145   65.8517   37.5361 Y1         2 LUT     -0.215556
    170 C31        82.8013   65.9268   38.8277 Y2         2 LUT      0.025142
    171 C32        81.6232   65.2981   39.1437 Y3         2 LUT     -0.212209
    172 C33        80.8308   65.4049   40.4141 Y4         2 LUT      0.240937
    173 C34        79.6515   64.7723   40.3891 Y5         2 LUT     -0.218862
    174 C35        78.5565   64.8344   41.3705 Y6         2 LUT     -0.023547
    175 C36        89.3173   66.5466   35.1001 Y7         2 LUT     -0.393485
    176 C37        88.2997   64.4080   35.9319 Y7         2 LUT     -0.393485
    177 C38        86.1864   67.6553   32.2557 Y9         2 LUT     -0.387526
    178 C39        84.9768   67.8916   37.8810 W1         2 LUT     -0.322618
    179 C40        81.2530   66.3667   41.5461 W2         2 LUT     -0.358472
    180 H403       80.5936   66.3251   42.4529 R7         2 LUT      0.097720
    181 H402       82.2530   66.2275   41.8399 R7         2 LUT      0.097720
    182 H401       81.3024   67.3665   41.0742 R7         2 LUT      0.097720
    183 H393       84.1941   68.3339   38.4866 R4         2 LUT      0.082505
    184 H392       85.7629   67.6589   38.5526 R4         2 LUT      0.082505
    185 H391       85.1985   68.7484   37.2432 R4         2 LUT      0.082505
    186 H383       85.4853   67.1536   31.5389 R1         2 LUT      0.104030
    187 H382       85.4198   67.9498   32.9766 R1         2 LUT      0.104030
    188 H381       86.6597   68.4988   31.7922 R1         2 LUT      0.104030
    189 H373       89.2525   63.9357   36.0587 T4         2 LUT      0.089537
    190 H372       87.9693   65.0111   36.7795 T4         2 LUT      0.089537
    191 H371       87.5325   63.6720   35.7103 T4         2 LUT      0.089537
    192 H363       90.3611   66.2229   35.3178 T4         2 LUT      0.089537
    193 H362       89.4607   67.2616   34.2834 T4         2 LUT      0.089537
    194 H361       89.0511   67.2092   35.8968 T4         2 LUT      0.089537
    195 H222       89.8885   64.1095   33.9005 U2         2 LUT      0.127376
    196 H221       88.2510   63.8789   33.4498 U2         2 LUT      0.127376
    197 H203       74.9861   62.8481   40.0965 R7         2 LUT      0.087068
    198 H202       75.0801   61.5583   41.2554 R7         2 LUT      0.087068
    199 H201       73.6853   62.3188   41.0009 R7         2 LUT      0.087068
    200 H193       70.1959   60.6708   45.4433 R4         2 LUT      0.089716
    201 H192       71.1237   60.8754   44.0128 R4         2 LUT      0.089716
    202 H191       71.8220   60.0998   45.4758 R4         2 LUT      0.089716
    203 H183       69.0021   65.6326   47.6882 R1         2 LUT      0.094572
    204 H182       68.8024   64.0866   46.6930 R1         2 LUT      0.094572
    205 H181       67.3786   64.8292   47.6786 R1         2 LUT      0.094572
    206 H173       70.3440   61.9174   52.2822 T4         2 LUT      0.093752
    207 H172       71.5477   62.4383   51.1523 T4         2 LUT      0.093752
    208 H171       70.2301   63.3642   51.7495 T4         2 LUT      0.093752
    209 H163       71.1626   60.3015   49.6195 T4         2 LUT      0.093752
    210 H162       70.1438   59.7852   50.9293 T4         2 LUT      0.093752
    211 H161       69.4466   59.9547   49.2845 T4         2 LUT      0.093752
    212 HO3        67.1199   63.1509   52.9822 Q1         2 LUT      0.300121
    213 H8         71.5120   63.6859   47.2902 U7         2 LUT      0.080784
    214 H7         69.5704   61.1825   47.3008 U6         2 LUT      0.042190
    215 H42        67.2190   64.9925   49.8379 U5         2 LUT      0.145166
    216 H41        68.6890   64.9908   50.6769 U5         2 LUT      0.145166
    217 H35        78.7327   65.1695   42.3735 T3         2 LUT      0.077919
    218 H34        79.4422   64.1835   39.4596 T2         2 LUT      0.073626
    219 H32        81.2361   64.6970   38.2919 T1         2 LUT      0.092510
    220 H31        83.1675   66.5419   39.6007 U9         2 LUT      0.070048
    221 H30        83.1428   65.0598   36.9211 U8         2 LUT      0.085442
    222 H3         66.4342   63.1012   50.6786 U3         2 LUT     -0.031596
    223 H28        84.4741   65.3852   35.3496 U7         2 LUT      0.084728
    224 H27        86.6535   67.4404   35.8208 U6         2 LUT      0.087291
    225 H26        86.4183   64.9482   33.9243 Q6         2 LUT      0.075325
    226 H24        88.2318   66.6751   30.8551 Q5         2 LUT      0.094482
    227 H23        90.2300   65.7838   32.3909 U3         2 LUT     -0.024869
    228 H22        67.5649   61.3483   49.8105 U2         2 LUT      0.127376
    229 H21        67.9932   61.2517   51.4159 U2         2 LUT      0.127376
    230 H15        77.2253   63.8958   39.9540 T3         2 LUT      0.093200
    231 H14        76.5097   65.0142   42.8327 T2         2 LUT      0.068865
    232 H12        74.4941   64.5005   44.0047 T1         2 LUT      0.095507
    233 H11        73.1300   61.9274   43.2271 U9         2 LUT      0.068930
    234 H10        72.9584   64.0138   45.5459 U8         2 LUT      0.083911
    235 H1         89.7129   64.6600   30.4854 Q1         2 LUT      0.297311
@<TRIPOS>BOND
    1     6     1 1
    2     7     2 1
    3     8     3 1
    4     9     4 1
    5    11     4 1
    6    12     6 1
    7    13     9 1
    8    16     9 1
    9    25     5 1
   10    25    16 1
   11    26    10 1
   12    26    17 1
   13    27    18 1
   14    28    14 1
   15    28    19 1
   16    29    12 1
   17    30    13 1
   18    31    24 1
   19    32     1 1
   20    32    25 1
   21    33    21 1
   22    33    26 1
   23    34    22 1
   24    34    27 1
   25    35    23 1
   26    35    28 1
   27    36    12 1
   28    36    24 1
   29    37    13 1
   30    37    15 1
   31    38    31 1
   32    39    20 1
   33    39    32 1
   34    40     2 1
   35    40    33 1
   36    41     3 1
   37    41    34 1
   38    42     4 1
   39    42    35 1
   40    43    38 1
   41    44     5 1
   42    44    17 1
   43    44    39 1
   44    45    10 1
   45    45    18 1
   46    45    40 1
   47    46    19 1
   48    46    41 1
   49    47    14 1
   50    47    16 1
   51    47    42 1
   52    48    38 1
   53    49    48 1
   54    50    49 1
   55    51    50 1
   56    52    51 1
   57    53    51 1
   58    54    53 1
   59    55    54 1
   60    56    55 1
   61    57    56 1
   62    58    56 1
   63    59    58 1
   64    60    59 1
   65    61    60 1
   66    62    61 1
   67    63    61 1
   68    64    27 1
   69    64    46 1
   70    65     5 1
   71    65    10 1
   72    65    64 1
   73    65    14 1
   74    66    23 1
   75    67    23 1
   76    68    23 1
   77    69    22 1
   78    70    22 1
   79    71    22 1
   80    72    21 1
   81    73    21 1
   82    74    21 1
   83    75    20 1
   84    76    20 1
   85    77    20 1
   86    78    15 1
   87    79    15 1
   88    80    15 1
   89    81     8 1
   90    82     8 1
   91    83     8 1
   92    84     7 1
   93    85     7 1
   94    86     6 1
   95    87     6 1
   96    88     3 1
   97    89     3 1
   98    90     1 1
   99    91     1 1
  100    92    63 1
  101    93    63 1
  102    94    63 1
  103    95    62 1
  104    96    62 1
  105    97    62 1
  106    98    60 1
  107    99    60 1
  108   100    59 1
  109   101    59 1
  110   102    58 1
  111   103    58 1
  112   104    57 1
  113   105    57 1
  114   106    57 1
  115   107    55 1
  116   108    55 1
  117   109    54 1
  118   110    54 1
  119   111    53 1
  120   112    53 1
  121   113    19 1
  122   114    18 1
  123   115    17 1
  124   116     9 1
  125   117     2 1
  126   118    52 1
  127   119    52 1
  128   120    52 1
  129   121    51 1
  130   122    50 1
  131   123    50 1
  132   124    49 1
  133   125    49 1
  134   126    48 1
  135   127    48 1
  136   128    43 1
  137   129    43 1
  138   130    43 1
  139   131    39 1
  140   132    32 1
  141   133    31 1
  142   134    61 1
  143   135    56 1
  144   136    24 1
  145   137    24 1
  146   139   138 1
  147   140   139 1
  148   141   140 1
  149   142   140 1
  150   143   142 1
  151   144   138 1
  152   144   143 1
  153   145   144 1
  154   146   145 1
  155   147   146 1
  156   148   147 1
  157   149   148 1
  158   150   149 1
  159   151   150 1
  160   152   151 1
  161   153   152 1
  162   154   138 1
  163   155   138 1
  164   156   143 1
  165   157   147 1
  166   158   151 1
  167   160   159 1
  168   161   160 1
  169   162   161 1
  170   163   161 1
  171   164   163 1
  172   165   159 1
  173   165   164 1
  174   166   165 1
  175   167   166 1
  176   168   167 1
  177   169   168 1
  178   170   169 1
  179   171   170 1
  180   172   171 1
  181   173   172 1
  182   174   153 1
  183   174   173 1
  184   175   159 1
  185   176   159 1
  186   177   164 1
  187   178   168 1
  188   179   172 1
  189   180   179 1
  190   181   179 1
  191   182   179 1
  192   183   178 1
  193   184   178 1
  194   185   178 1
  195   186   177 1
  196   187   177 1
  197   188   177 1
  198   189   176 1
  199   190   176 1
  200   191   176 1
  201   192   175 1
  202   193   175 1
  203   194   175 1
  204   195   160 1
  205   196   160 1
  206   197   158 1
  207   198   158 1
  208   199   158 1
  209   200   157 1
  210   201   157 1
  211   202   157 1
  212   203   156 1
  213   204   156 1
  214   205   156 1
  215   206   155 1
  216   207   155 1
  217   208   155 1
  218   209   154 1
  219   210   154 1
  220   211   154 1
  221   212   141 1
  222   213   146 1
  223   214   145 1
  224   215   142 1
  225   216   142 1
  226   217   174 1
  227   218   173 1
  228   219   171 1
  229   220   170 1
  230   221   169 1
  231   222   140 1
  232   223   167 1
  233   224   166 1
  234   225   165 1
  235   226   163 1
  236   227   161 1
  237   228   139 1
  238   229   139 1
  239   230   153 1
  240   231   152 1
  241   232   150 1
  242   233   149 1
  243   234   148 1
  244   235   162 1
  245   65    153 1
  246   65    174 1
@<TRIPOS>SUBSTRUCTURE
      1 CLA               1 ****               0 ****  **** 
      2 LUT             138 ****               0 ****  **** 
