@<TRIPOS>MOLECULE
Cpptraj generated mol2 file.
  235   246     2     0     0
SMALL
USER_CHARGES


@<TRIPOS>ATOM
      1 CAA        78.3031   56.8686   34.9078 a2         1 CLA     -0.055900
      2 CAB        78.4316   61.3912   43.4289 c8         1 CLA     -0.148500
      3 CAC        71.3384   57.3900   43.3304 a2         1 CLA     -0.012600
      4 CAD        74.0050   54.6224   36.1362 ck         1 CLA      0.398800
      5 NA         77.2914   57.5050   38.2648 ns         1 CLA     -0.225500
      6 CBA        79.6454   56.7524   34.0962 a2         1 CLA     -0.135000
      7 CBB        79.5237   61.0864   44.1557 c0         1 CLA     -0.395200
      8 CBC        70.9532   55.8853   43.2497 a3         1 CLA     -0.037700
      9 CBD        75.4407   55.0151   35.8604 a1         1 CLA     -0.053900
     10 NB         77.1358   59.3092   40.5209 nm         1 CLA     -0.295700
     11 OBD        73.2750   53.8690   35.4337 o2         1 CLA     -0.494600
     12 CGA        80.0300   55.3297   33.7873 c4         1 CLA      0.827000
     13 CGD        76.3023   53.8235   35.4576 c4         1 CLA      0.655300
     14 ND         74.6096   56.5496   38.9840 nm         1 CLA     -0.291600
     15 CED        76.9570   51.6910   36.2741 a3         1 CLA      0.005400
     16 CHA        75.9444   55.9849   36.9947 cs         1 CLA     -0.123800
     17 CHB        79.0817   58.9402   39.0440 aa         1 CLA     -0.291900
     18 CHC        75.9145   59.5825   42.7101 aa         1 CLA     -0.090400
     19 CHD        72.7027   56.7379   40.4546 aa         1 CLA     -0.052000
     20 CMA        80.7173   56.5566   37.7592 a3         1 CLA     -0.230700
     21 CMB        80.3290   61.1268   40.7761 a3         1 CLA     -0.180800
     22 CMC        73.4284   59.5114   44.7533 a3         1 CLA     -0.134000
     23 CMD        71.3078   54.9437   38.1202 a3         1 CLA     -0.141100
     24 C1         80.8053   53.3653   34.9296 a2         1 CLA      0.023000
     25 C1A        77.1362   56.6494   37.1981 ac         1 CLA     -0.015100
     26 C1B        78.3900   59.6651   40.0925 cr         1 CLA      0.054700
     27 C1C        74.6820   58.9655   42.4411 cn         1 CLA     -0.005600
     28 C1D        73.2794   56.2743   39.3322 ap         1 CLA     -0.047300
     29 O1A        79.8879   54.6882   32.7760 o2         1 CLA     -0.610800
     30 O1D        76.8042   53.6349   34.3446 o2         1 CLA     -0.558200
     31 C2         81.1181   52.9762   36.3321 c8         1 CLA     -0.325100
     32 C2A        78.3872   56.4317   36.4147 a1         1 CLA      0.098600
     33 C2B        78.9719   60.6315   41.0351 cb         1 CLA      0.088500
     34 C2C        73.5787   58.7903   43.4087 cb         1 CLA      0.053700
     35 C2D        72.6782   55.4990   38.2804 cb         1 CLA      0.058900
     36 O2A        80.5642   54.8050   34.8504 o1         1 CLA     -0.437200
     37 O2D        76.2579   52.9243   36.4872 o1         1 CLA     -0.357600
     38 C3         81.8215   51.8723   36.8349 c5         1 CLA      0.031200
     39 C3A        79.3933   57.2952   37.2149 a1         1 CLA      0.166800
     40 C3B        78.1263   60.7494   42.1177 cb         1 CLA      0.035000
     41 C3C        72.6785   57.8677   42.8183 cb         1 CLA     -0.089900
     42 C3D        73.6708   55.2862   37.3360 cb         1 CLA     -0.035900
     43 C4         81.1130   50.5520   37.1966 a3         1 CLA     -0.053300
     44 C4A        78.5364   57.9181   38.2603 ac         1 CLA      0.001800
     45 C4B        76.9628   59.8750   41.8129 cn         1 CLA     -0.020900
     46 C4C        73.2260   57.5595   41.4791 cr         1 CLA     -0.044400
     47 C4D        74.8245   55.9494   37.8172 c6         1 CLA     -0.046000
     48 C5         83.3104   52.0136   36.9760 a2         1 CLA     -0.070400
     49 C6         83.5904   53.1620   37.9826 a2         1 CLA      0.043900
     50 C7         85.0826   53.2958   38.3240 a2         1 CLA     -0.150000
     51 C8         85.5832   54.6862   38.8177 a1         1 CLA      0.064200
     52 C9         87.1302   54.9096   38.4444 a3         1 CLA     -0.259300
     53 C10        85.4389   55.0149   40.3730 a2         1 CLA     -0.071900
     54 C11        83.9857   55.2513   40.7820 a2         1 CLA      0.014500
     55 C12        83.9057   56.0769   42.1046 a2         1 CLA     -0.112100
     56 C13        82.4914   56.4430   42.6074 a1         1 CLA      0.089200
     57 C14        81.9023   57.6337   41.7689 a3         1 CLA     -0.239100
     58 C15        82.4752   56.5427   44.1177 a2         1 CLA     -0.102200
     59 C16        83.0583   57.8210   44.6798 a2         1 CLA      0.023900
     60 C17        83.3298   57.6526   46.2088 a2         1 CLA     -0.105700
     61 C18        84.0385   58.9041   46.7758 a1         1 CLA      0.206800
     62 C19        82.9719   59.9672   47.0469 a3         1 CLA     -0.280100
     63 C20        84.8382   58.4442   48.0973 a3         1 CLA     -0.280100
     64 NC         74.4517   58.2692   41.3287 nx         1 CLA     -0.309200
     65 MG         75.8436   58.0887   39.6757 mg         1 CLA      0.895000
     66 HMD3       70.6822   54.6366   38.9463 dc         1 CLA      0.064300
     67 HMD2       70.7727   55.6907   37.5149 dc         1 CLA      0.064300
     68 HMD1       71.2950   54.0531   37.4932 dc         1 CLA      0.064300
     69 HMC3       73.9060   58.9566   45.5893 dc         1 CLA      0.052100
     70 HMC2       73.8340   60.4674   44.5321 dc         1 CLA      0.052100
     71 HMC1       72.3750   59.6936   44.9623 dc         1 CLA      0.052100
     72 HMB3       80.9784   60.2160   40.8026 dc         1 CLA      0.063600
     73 HMB2       80.4629   61.6478   39.8162 dc         1 CLA      0.063600
     74 HMB1       80.5618   61.8874   41.5778 dc         1 CLA      0.063600
     75 HMA3       81.3896   57.2004   38.3452 dc         1 CLA      0.058300
     76 HMA2       80.4927   55.6630   38.3021 dc         1 CLA      0.058300
     77 HMA1       81.2535   56.2618   36.8246 dc         1 CLA      0.058300
     78 HED3       76.5702   51.2385   35.3317 dc         1 CLA      0.079300
     79 HED2       78.0190   51.9088   36.3053 dc         1 CLA      0.079300
     80 HED1       76.6641   50.9977   37.0638 dc         1 CLA      0.079300
     81 HBC3       71.9459   55.4401   43.1123 dc         1 CLA      0.016300
     82 HBC2       70.3003   55.5598   43.9708 dc         1 CLA      0.016300
     83 HBC1       70.5271   55.7615   42.2533 dc         1 CLA      0.016300
     84 HBB2       79.8159   61.6331   45.1012 da         1 CLA      0.183000
     85 HBB1       80.2893   60.4204   43.7406 da         1 CLA      0.183000
     86 HBA2       79.6329   57.3015   33.1478 dc         1 CLA      0.029400
     87 HBA1       80.3715   57.1375   34.8267 dc         1 CLA      0.029400
     88 HAC2       71.2957   57.5576   44.4277 dc         1 CLA      0.029300
     89 HAC1       70.5814   58.0695   42.8369 dc         1 CLA      0.029300
     90 HAA2       77.4722   56.2776   34.4277 dc         1 CLA      0.028700
     91 HAA1       77.9822   57.9011   34.9364 dc         1 CLA      0.028700
     92 H203       85.7259   57.8786   47.8306 dc         1 CLA      0.065600
     93 H202       85.1672   59.2896   48.7284 dc         1 CLA      0.065600
     94 H201       84.2177   57.7156   48.6656 dc         1 CLA      0.065600
     95 H193       83.4672   60.8405   47.4084 dc         1 CLA      0.065600
     96 H192       82.4777   60.2592   46.1374 dc         1 CLA      0.065600
     97 H191       82.3304   59.6472   47.8633 dc         1 CLA      0.065600
     98 H172       82.4813   57.4204   46.7885 dc         1 CLA      0.027600
     99 H171       84.0032   56.7783   46.4968 dc         1 CLA      0.027600
    100 H162       83.9038   58.1860   44.0478 dc         1 CLA      0.002900
    101 H161       82.2512   58.4893   44.4983 dc         1 CLA      0.002900
    102 H152       81.4667   56.4340   44.3707 dc         1 CLA      0.029100
    103 H151       83.0290   55.7057   44.4770 dc         1 CLA      0.029100
    104 H143       82.3122   57.7283   40.7936 dc         1 CLA      0.063600
    105 H142       80.8358   57.3064   41.6471 dc         1 CLA      0.063600
    106 H141       81.7963   58.5662   42.2362 dc         1 CLA      0.063600
    107 H122       84.4013   55.4901   42.8689 dc         1 CLA      0.032500
    108 H121       84.3817   57.0094   41.8975 dc         1 CLA      0.032500
    109 H112       83.4258   55.8098   40.0621 dc         1 CLA      0.006600
    110 H111       83.5447   54.2809   40.9549 dc         1 CLA      0.006600
    111 H102       85.8814   54.1540   40.7819 dc         1 CLA      0.024100
    112 H101       85.9956   55.9758   40.6236 dc         1 CLA      0.024100
    113 HHD        71.6701   56.5088   40.5691 da         1 CLA      0.174300
    114 HHC        76.0300   59.9659   43.7230 da         1 CLA      0.136800
    115 HHB        80.0507   59.3162   38.7157 da         1 CLA      0.138300
    116 HBD        75.4753   55.7202   35.0216 dc         1 CLA      0.107700
    117 HAB        77.7302   62.1500   43.8353 da         1 CLA      0.155200
    118 H93        87.6536   55.8131   38.8872 dc         1 CLA      0.069500
    119 H92        87.6664   54.0024   38.7936 dc         1 CLA      0.069500
    120 H91        87.2674   54.9138   37.3856 dc         1 CLA      0.069500
    121 H8         85.0356   55.4092   38.2288 dc         1 CLA      0.029300
    122 H72        85.5077   52.5106   38.9046 dc         1 CLA      0.044400
    123 H71        85.5042   53.1065   37.3714 dc         1 CLA      0.044400
    124 H62        83.4238   54.1377   37.4685 dc         1 CLA      0.015600
    125 H61        82.9822   53.2722   38.8995 dc         1 CLA      0.015600
    126 H52        83.7057   51.1290   37.3942 dc         1 CLA      0.033200
    127 H51        83.8116   52.2472   36.0856 dc         1 CLA      0.033200
    128 H43        80.0024   50.7198   37.2696 dc         1 CLA      0.037000
    129 H42        81.3661   49.8510   36.3729 dc         1 CLA      0.037000
    130 H41        81.5069   50.1888   38.1543 dc         1 CLA      0.037000
    131 H3A        79.7162   58.1315   36.5825 dc         1 CLA      0.041100
    132 H2A        78.7286   55.3929   36.4227 dc         1 CLA      0.083100
    133 H2         80.7200   53.6490   37.1403 da         1 CLA      0.180900
    134 H18        84.6585   59.3251   45.9735 dc         1 CLA     -0.003900
    135 H13        81.9252   55.4983   42.3154 dc         1 CLA      0.019700
    136 H12        79.9218   52.9458   34.5030 dc         1 CLA      0.120400
    137 H11        81.6088   53.1373   34.2467 dc         1 CLA      0.120400
    138 C1         68.2775   60.2948   50.1946 Z1         2 LUT      0.509236
    139 C2         66.9644   60.1161   51.0261 Z2         2 LUT     -0.434695
    140 C3         66.1149   61.3481   51.3012 Z3         2 LUT      0.437453
    141 O3         66.2355   61.7800   52.6481 S1         2 LUT     -0.547129
    142 C4         66.3960   62.5884   50.2953 Z4         2 LUT     -0.468603
    143 C5         67.0552   62.1554   48.9809 Z5         2 LUT      0.279246
    144 C6         67.8657   61.0252   48.9247 Z6         2 LUT     -0.305473
    145 C7         68.0964   60.3526   47.6879 Z7         2 LUT      0.069402
    146 C8         68.7394   60.9988   46.6117 Z8         2 LUT     -0.191631
    147 C9         69.1997   60.5399   45.2822 Z9         2 LUT      0.196698
    148 C10        70.0852   61.3887   44.6116 Y1         2 LUT     -0.208611
    149 C11        70.8090   61.2030   43.3090 Y2         2 LUT      0.030784
    150 C12        71.8582   62.0438   42.9794 Y3         2 LUT     -0.220316
    151 C13        72.8769   62.0072   41.9988 Y4         2 LUT      0.215937
    152 C14        73.9285   62.8292   42.1851 Y5         2 LUT     -0.185793
    153 C15        75.1452   62.8453   41.4345 Y6         2 LUT     -0.057835
    154 C16        68.9735   58.9118   50.0128 Y7         2 LUT     -0.405615
    155 C17        69.0870   61.1212   51.2540 Y7         2 LUT     -0.405615
    156 C18        66.4405   62.8966   47.8576 Y9         2 LUT     -0.369639
    157 C19        68.6842   59.2110   44.7838 W1         2 LUT     -0.333362
    158 C20        72.4389   61.2473   40.7120 W2         2 LUT     -0.323439
    159 C21        86.5406   64.4935   35.8641 Z1         2 LUT      0.406104
    160 C22        87.3077   63.8257   34.7029 Z2         2 LUT     -0.404965
    161 C23        87.6563   64.7265   33.5710 Z3         2 LUT      0.391255
    162 O23        88.3640   63.9997   32.5328 S1         2 LUT     -0.528210
    163 C24        86.4299   65.5505   33.2303 W6         2 LUT     -0.258361
    164 C25        85.2600   65.7121   33.9115 Z5         2 LUT      0.133546
    165 C26        85.1718   64.9278   35.2718 W8         2 LUT     -0.147008
    166 C27        84.3122   65.6173   36.3740 Z7         2 LUT      0.023843
    167 C28        83.2492   65.0512   37.0190 Z8         2 LUT     -0.216987
    168 C29        82.5083   65.5530   38.1180 Z9         2 LUT      0.206524
    169 C30        81.5611   64.7812   38.7325 Y1         2 LUT     -0.215556
    170 C31        80.6388   65.0851   39.8107 Y2         2 LUT      0.025142
    171 C32        79.4857   64.3779   40.0025 Y3         2 LUT     -0.212209
    172 C33        78.4932   64.3896   41.0683 Y4         2 LUT      0.240937
    173 C34        77.4410   63.5295   40.9629 Y5         2 LUT     -0.218862
    174 C35        76.2775   63.4822   41.8363 Y6         2 LUT     -0.023547
    175 C36        87.3748   65.7025   36.3928 Y7         2 LUT     -0.393485
    176 C37        86.4566   63.4593   37.0190 Y7         2 LUT     -0.393485
    177 C38        84.0493   66.5772   33.4965 Y9         2 LUT     -0.387526
    178 C39        82.9022   66.9359   38.7453 W1         2 LUT     -0.322618
    179 C40        78.7990   65.2450   42.2997 W2         2 LUT     -0.358472
    180 H403       78.3515   64.9242   43.2317 R7         2 LUT      0.097720
    181 H402       79.9122   65.3402   42.5019 R7         2 LUT      0.097720
    182 H401       78.5263   66.2345   42.1215 R7         2 LUT      0.097720
    183 H393       82.9057   67.6623   37.9416 R4         2 LUT      0.082505
    184 H392       82.2614   67.4519   39.4614 R4         2 LUT      0.082505
    185 H391       83.9448   66.9065   39.1096 R4         2 LUT      0.082505
    186 H383       83.7158   67.2028   34.3545 R1         2 LUT      0.104030
    187 H382       84.2809   67.2252   32.7245 R1         2 LUT      0.104030
    188 H381       83.2961   65.8471   33.1492 R1         2 LUT      0.104030
    189 H373       87.4337   63.1178   37.2955 T4         2 LUT      0.089537
    190 H372       85.8929   63.7146   37.9644 T4         2 LUT      0.089537
    191 H371       85.9067   62.5524   36.8033 T4         2 LUT      0.089537
    192 H363       86.8561   66.1997   37.1401 T4         2 LUT      0.089537
    193 H362       88.2209   65.3317   36.8733 T4         2 LUT      0.089537
    194 H361       87.5285   66.3880   35.6325 T4         2 LUT      0.089537
    195 H222       88.2159   63.2382   34.8999 U2         2 LUT      0.127376
    196 H221       86.6905   63.0095   34.3106 U2         2 LUT      0.127376
    197 H203       72.7607   61.7749   39.8132 R7         2 LUT      0.087068
    198 H202       72.8136   60.2149   40.7507 R7         2 LUT      0.087068
    199 H201       71.3351   61.1886   40.5049 R7         2 LUT      0.087068
    200 H193       67.5559   59.1104   44.7337 R4         2 LUT      0.089716
    201 H192       69.0560   59.0410   43.8314 R4         2 LUT      0.089716
    202 H191       69.0729   58.4012   45.4991 R4         2 LUT      0.089716
    203 H183       66.1703   62.0821   47.1384 R1         2 LUT      0.094572
    204 H182       65.4910   63.4607   48.1581 R1         2 LUT      0.094572
    205 H181       67.0903   63.6542   47.4733 R1         2 LUT      0.094572
    206 H173       70.1118   61.3631   50.9895 T4         2 LUT      0.093752
    207 H172       68.5978   62.0804   51.6025 T4         2 LUT      0.093752
    208 H171       69.2663   60.4596   52.0960 T4         2 LUT      0.093752
    209 H163       69.4565   58.6363   50.9727 T4         2 LUT      0.093752
    210 H162       68.2560   58.0801   49.7239 T4         2 LUT      0.093752
    211 H161       69.6947   58.9761   49.1730 T4         2 LUT      0.093752
    212 HO3        65.6564   61.2549   53.2369 Q1         2 LUT      0.300121
    213 H8         68.9823   62.1034   46.8389 U7         2 LUT      0.080784
    214 H7         67.8390   59.2941   47.6566 U6         2 LUT      0.042190
    215 H42        65.4690   63.1846   50.1212 U5         2 LUT      0.145166
    216 H41        67.0409   63.3508   50.7641 U5         2 LUT      0.145166
    217 H35        76.2556   64.0120   42.7806 T3         2 LUT      0.077919
    218 H34        77.4613   62.8682   40.0750 T2         2 LUT      0.073626
    219 H32        79.2114   63.5991   39.1560 T1         2 LUT      0.092510
    220 H31        80.9800   65.7836   40.5640 U9         2 LUT      0.070048
    221 H30        81.3549   63.8717   38.2210 U8         2 LUT      0.085442
    222 H3         65.0265   61.0631   51.1676 U3         2 LUT     -0.031596
    223 H28        82.9139   64.0620   36.7407 U7         2 LUT      0.084728
    224 H27        84.7589   66.5476   36.7965 U6         2 LUT      0.087291
    225 H26        84.7410   63.9353   35.0047 Q6         2 LUT      0.075325
    226 H24        86.4054   66.0457   32.3252 Q5         2 LUT      0.094482
    227 H23        88.4605   65.4146   33.8909 U3         2 LUT     -0.024869
    228 H22        66.3477   59.5007   50.4250 U2         2 LUT      0.127376
    229 H21        67.2982   59.6955   52.0203 U2         2 LUT      0.127376
    230 H15        75.2034   62.2323   40.5489 T3         2 LUT      0.093200
    231 H14        74.0256   63.4921   43.0928 T2         2 LUT      0.068865
    232 H12        72.0997   62.8534   43.7379 T1         2 LUT      0.095507
    233 H11        70.7572   60.3076   42.6623 U9         2 LUT      0.068930
    234 H10        70.3564   62.2396   45.1737 U8         2 LUT      0.083911
    235 H1         87.8157   63.4206   31.9964 Q1         2 LUT      0.297311
@<TRIPOS>BOND
    1     6     1 1
    2     7     2 1
    3     8     3 1
    4     9     4 1
    5    11     4 1
    6    12     6 1
    7    13     9 1
    8    16     9 1
    9    25     5 1
   10    25    16 1
   11    26    10 1
   12    26    17 1
   13    27    18 1
   14    28    14 1
   15    28    19 1
   16    29    12 1
   17    30    13 1
   18    31    24 1
   19    32     1 1
   20    32    25 1
   21    33    21 1
   22    33    26 1
   23    34    22 1
   24    34    27 1
   25    35    23 1
   26    35    28 1
   27    36    12 1
   28    36    24 1
   29    37    13 1
   30    37    15 1
   31    38    31 1
   32    39    20 1
   33    39    32 1
   34    40     2 1
   35    40    33 1
   36    41     3 1
   37    41    34 1
   38    42     4 1
   39    42    35 1
   40    43    38 1
   41    44     5 1
   42    44    17 1
   43    44    39 1
   44    45    10 1
   45    45    18 1
   46    45    40 1
   47    46    19 1
   48    46    41 1
   49    47    14 1
   50    47    16 1
   51    47    42 1
   52    48    38 1
   53    49    48 1
   54    50    49 1
   55    51    50 1
   56    52    51 1
   57    53    51 1
   58    54    53 1
   59    55    54 1
   60    56    55 1
   61    57    56 1
   62    58    56 1
   63    59    58 1
   64    60    59 1
   65    61    60 1
   66    62    61 1
   67    63    61 1
   68    64    27 1
   69    64    46 1
   70    65     5 1
   71    65    10 1
   72    65    64 1
   73    65    14 1
   74    66    23 1
   75    67    23 1
   76    68    23 1
   77    69    22 1
   78    70    22 1
   79    71    22 1
   80    72    21 1
   81    73    21 1
   82    74    21 1
   83    75    20 1
   84    76    20 1
   85    77    20 1
   86    78    15 1
   87    79    15 1
   88    80    15 1
   89    81     8 1
   90    82     8 1
   91    83     8 1
   92    84     7 1
   93    85     7 1
   94    86     6 1
   95    87     6 1
   96    88     3 1
   97    89     3 1
   98    90     1 1
   99    91     1 1
  100    92    63 1
  101    93    63 1
  102    94    63 1
  103    95    62 1
  104    96    62 1
  105    97    62 1
  106    98    60 1
  107    99    60 1
  108   100    59 1
  109   101    59 1
  110   102    58 1
  111   103    58 1
  112   104    57 1
  113   105    57 1
  114   106    57 1
  115   107    55 1
  116   108    55 1
  117   109    54 1
  118   110    54 1
  119   111    53 1
  120   112    53 1
  121   113    19 1
  122   114    18 1
  123   115    17 1
  124   116     9 1
  125   117     2 1
  126   118    52 1
  127   119    52 1
  128   120    52 1
  129   121    51 1
  130   122    50 1
  131   123    50 1
  132   124    49 1
  133   125    49 1
  134   126    48 1
  135   127    48 1
  136   128    43 1
  137   129    43 1
  138   130    43 1
  139   131    39 1
  140   132    32 1
  141   133    31 1
  142   134    61 1
  143   135    56 1
  144   136    24 1
  145   137    24 1
  146   139   138 1
  147   140   139 1
  148   141   140 1
  149   142   140 1
  150   143   142 1
  151   144   138 1
  152   144   143 1
  153   145   144 1
  154   146   145 1
  155   147   146 1
  156   148   147 1
  157   149   148 1
  158   150   149 1
  159   151   150 1
  160   152   151 1
  161   153   152 1
  162   154   138 1
  163   155   138 1
  164   156   143 1
  165   157   147 1
  166   158   151 1
  167   160   159 1
  168   161   160 1
  169   162   161 1
  170   163   161 1
  171   164   163 1
  172   165   159 1
  173   165   164 1
  174   166   165 1
  175   167   166 1
  176   168   167 1
  177   169   168 1
  178   170   169 1
  179   171   170 1
  180   172   171 1
  181   173   172 1
  182   174   153 1
  183   174   173 1
  184   175   159 1
  185   176   159 1
  186   177   164 1
  187   178   168 1
  188   179   172 1
  189   180   179 1
  190   181   179 1
  191   182   179 1
  192   183   178 1
  193   184   178 1
  194   185   178 1
  195   186   177 1
  196   187   177 1
  197   188   177 1
  198   189   176 1
  199   190   176 1
  200   191   176 1
  201   192   175 1
  202   193   175 1
  203   194   175 1
  204   195   160 1
  205   196   160 1
  206   197   158 1
  207   198   158 1
  208   199   158 1
  209   200   157 1
  210   201   157 1
  211   202   157 1
  212   203   156 1
  213   204   156 1
  214   205   156 1
  215   206   155 1
  216   207   155 1
  217   208   155 1
  218   209   154 1
  219   210   154 1
  220   211   154 1
  221   212   141 1
  222   213   146 1
  223   214   145 1
  224   215   142 1
  225   216   142 1
  226   217   174 1
  227   218   173 1
  228   219   171 1
  229   220   170 1
  230   221   169 1
  231   222   140 1
  232   223   167 1
  233   224   166 1
  234   225   165 1
  235   226   163 1
  236   227   161 1
  237   228   139 1
  238   229   139 1
  239   230   153 1
  240   231   152 1
  241   232   150 1
  242   233   149 1
  243   234   148 1
  244   235   162 1
  245   65    153 1
  246   65    174 1
@<TRIPOS>SUBSTRUCTURE
      1 CLA               1 ****               0 ****  **** 
      2 LUT             138 ****               0 ****  **** 
