@<TRIPOS>MOLECULE
Cpptraj generated mol2 file.
  235   246     2     0     0
SMALL
USER_CHARGES


@<TRIPOS>ATOM
      1 CAA        79.6393   58.3623   34.4021 a2         1 CLA     -0.055900
      2 CAB        80.4449   62.4901   43.2903 c8         1 CLA     -0.148500
      3 CAC        73.1095   58.9096   43.1103 a2         1 CLA     -0.012600
      4 CAD        75.2661   56.3348   35.9333 ck         1 CLA      0.398800
      5 NA         78.7570   59.1853   37.7943 ns         1 CLA     -0.225500
      6 CBA        80.9183   58.0672   33.6001 a2         1 CLA     -0.135000
      7 CBB        80.2289   61.8572   44.4526 c0         1 CLA     -0.395200
      8 CBC        73.2957   57.7254   44.0771 a3         1 CLA     -0.037700
      9 CBD        76.7226   56.6255   35.5782 a1         1 CLA     -0.053900
     10 NB         78.8330   60.6522   40.4338 nm         1 CLA     -0.295700
     11 OBD        74.6045   55.5044   35.2878 o2         1 CLA     -0.494600
     12 CGA        81.3824   56.6354   33.3403 c4         1 CLA      0.827000
     13 CGD        77.6367   55.4536   35.6226 c4         1 CLA      0.655300
     14 ND         75.8615   58.6508   38.4637 nm         1 CLA     -0.291600
     15 CED        78.4742   53.6539   36.8118 a3         1 CLA      0.005400
     16 CHA        77.1924   57.7587   36.5101 cs         1 CLA     -0.123800
     17 CHB        80.6641   60.3491   38.8000 aa         1 CLA     -0.291900
     18 CHC        77.5494   61.2022   42.4383 aa         1 CLA     -0.090400
     19 CHD        74.1428   58.5642   40.2157 aa         1 CLA     -0.052000
     20 CMA        81.9697   57.9580   37.3174 a3         1 CLA     -0.230700
     21 CMB        82.3482   62.0040   40.6562 a3         1 CLA     -0.180800
     22 CMC        75.4973   60.6242   44.6905 a3         1 CLA     -0.134000
     23 CMD        72.4458   56.8857   38.0658 a3         1 CLA     -0.141100
     24 C1         82.7395   54.8751   34.0619 a2         1 CLA      0.023000
     25 C1A        78.4569   58.3752   36.6834 ac         1 CLA     -0.015100
     26 C1B        80.1048   60.9329   39.9565 cr         1 CLA      0.054700
     27 C1C        76.3888   60.4448   42.2692 cn         1 CLA     -0.005600
     28 C1D        74.6036   58.2400   38.9547 ap         1 CLA     -0.047300
     29 O1A        81.0150   55.9820   32.3826 o2         1 CLA     -0.610800
     30 O1D        78.4778   55.2601   34.7928 o2         1 CLA     -0.558200
     31 C2         83.6470   54.5896   35.1619 c8         1 CLA     -0.325100
     32 C2A        79.7460   57.9929   35.9244 a1         1 CLA      0.098600
     33 C2B        80.8614   61.7851   40.8156 cb         1 CLA      0.088500
     34 C2C        75.3723   60.1184   43.2883 cb         1 CLA      0.053700
     35 C2D        73.8517   57.4067   37.9842 cb         1 CLA      0.058900
     36 O2A        82.2660   56.1989   34.3362 o1         1 CLA     -0.437200
     37 O2D        77.5006   54.7428   36.7786 o1         1 CLA     -0.357600
     38 C3         84.8351   53.8941   35.1917 c5         1 CLA      0.031200
     39 C3A        80.8548   58.8324   36.6900 a1         1 CLA      0.166800
     40 C3B        80.0293   61.9114   41.9378 cb         1 CLA      0.035000
     41 C3C        74.4227   59.4197   42.6181 cb         1 CLA     -0.089900
     42 C3D        74.8594   57.1501   37.0534 cb         1 CLA     -0.035900
     43 C4         84.9015   52.4317   35.6159 a3         1 CLA     -0.053300
     44 C4A        80.0755   59.5272   37.8362 ac         1 CLA      0.001800
     45 C4B        78.7050   61.2430   41.6282 cn         1 CLA     -0.020900
     46 C4C        74.8632   59.2444   41.2275 cr         1 CLA     -0.044400
     47 C4D        76.0495   57.9458   37.3427 c6         1 CLA     -0.046000
     48 C5         86.1220   54.5375   34.7376 a2         1 CLA     -0.070400
     49 C6         86.5641   55.8416   35.4850 a2         1 CLA      0.043900
     50 C7         86.8715   55.5628   36.9772 a2         1 CLA     -0.150000
     51 C8         87.1461   56.7213   37.9055 a1         1 CLA      0.064200
     52 C9         88.3550   57.4935   37.4978 a3         1 CLA     -0.259300
     53 C10        87.3290   56.2791   39.3345 a2         1 CLA     -0.071900
     54 C11        87.4301   57.3461   40.4836 a2         1 CLA      0.014500
     55 C12        87.6072   56.7582   41.8709 a2         1 CLA     -0.112100
     56 C13        87.3031   57.7357   43.0761 a1         1 CLA      0.089200
     57 C14        88.0548   59.0481   42.8236 a3         1 CLA     -0.239100
     58 C15        87.7364   57.0529   44.3898 a2         1 CLA     -0.102200
     59 C16        87.1999   57.6472   45.6729 a2         1 CLA      0.023900
     60 C17        87.4283   56.7142   46.9244 a2         1 CLA     -0.105700
     61 C18        86.8250   57.0749   48.3178 a1         1 CLA      0.206800
     62 C19        87.3884   55.9723   49.2855 a3         1 CLA     -0.280100
     63 C20        87.2529   58.5247   48.7400 a3         1 CLA     -0.280100
     64 NC         76.1360   59.8133   41.0431 nx         1 CLA     -0.309200
     65 MG         77.3143   59.5929   39.3380 mg         1 CLA      0.895000
     66 HMD3       71.8726   57.7421   37.6778 dc         1 CLA      0.064300
     67 HMD2       72.4228   56.0325   37.4161 dc         1 CLA      0.064300
     68 HMD1       72.1313   56.7132   39.0479 dc         1 CLA      0.064300
     69 HMC3       76.2772   59.9997   45.0452 dc         1 CLA      0.052100
     70 HMC2       75.7546   61.6823   44.7630 dc         1 CLA      0.052100
     71 HMC1       74.6561   60.3832   45.2888 dc         1 CLA      0.052100
     72 HMB3       82.8855   61.0520   40.6617 dc         1 CLA      0.063600
     73 HMB2       82.5347   62.5572   39.7384 dc         1 CLA      0.063600
     74 HMB1       82.6994   62.5996   41.4884 dc         1 CLA      0.063600
     75 HMA3       82.5618   57.7466   36.3717 dc         1 CLA      0.058300
     76 HMA2       82.5868   58.5817   37.9756 dc         1 CLA      0.058300
     77 HMA1       81.6031   56.9856   37.6767 dc         1 CLA      0.058300
     78 HED3       78.5197   53.2372   37.8221 dc         1 CLA      0.079300
     79 HED2       78.2692   52.8006   36.1549 dc         1 CLA      0.079300
     80 HED1       79.4880   54.0024   36.7125 dc         1 CLA      0.079300
     81 HBC3       72.3014   57.6645   44.4600 dc         1 CLA      0.016300
     82 HBC2       73.5399   56.8374   43.4708 dc         1 CLA      0.016300
     83 HBC1       73.9909   57.9342   44.8331 dc         1 CLA      0.016300
     84 HBB2       80.4110   62.3463   45.4635 da         1 CLA      0.183000
     85 HBB1       79.7093   60.9166   44.3931 da         1 CLA      0.183000
     86 HBA2       80.9228   58.5442   32.6348 dc         1 CLA      0.029400
     87 HBA1       81.7668   58.5982   34.1336 dc         1 CLA      0.029400
     88 HAC2       72.5444   59.6968   43.6029 dc         1 CLA      0.029300
     89 HAC1       72.5063   58.6955   42.2752 dc         1 CLA      0.029300
     90 HAA2       78.8156   57.8202   34.0411 dc         1 CLA      0.028700
     91 HAA1       79.2716   59.4099   34.2611 dc         1 CLA      0.028700
     92 H203       88.2885   58.5469   48.7293 dc         1 CLA      0.065600
     93 H202       86.8625   59.2171   48.0031 dc         1 CLA      0.065600
     94 H201       86.9707   58.7658   49.7665 dc         1 CLA      0.065600
     95 H193       87.0948   54.9369   48.9454 dc         1 CLA      0.065600
     96 H192       88.4271   56.0169   49.2269 dc         1 CLA      0.065600
     97 H191       86.9195   56.0805   50.3144 dc         1 CLA      0.065600
     98 H172       87.1274   55.7172   46.7363 dc         1 CLA      0.027600
     99 H171       88.4955   56.5971   47.1261 dc         1 CLA      0.027600
    100 H162       87.6337   58.5990   45.8233 dc         1 CLA      0.002900
    101 H161       86.1353   57.8444   45.6460 dc         1 CLA      0.002900
    102 H152       87.2802   56.0811   44.4003 dc         1 CLA      0.029100
    103 H151       88.8522   57.0054   44.4317 dc         1 CLA      0.029100
    104 H143       87.9999   59.6769   43.6076 dc         1 CLA      0.063600
    105 H142       89.0849   58.7963   42.6880 dc         1 CLA      0.063600
    106 H141       87.5734   59.4924   41.9864 dc         1 CLA      0.063600
    107 H122       86.9489   55.8934   41.8525 dc         1 CLA      0.032500
    108 H121       88.6686   56.4449   41.9673 dc         1 CLA      0.032500
    109 H112       88.2844   57.9876   40.1680 dc         1 CLA      0.006600
    110 H111       86.4377   57.8282   40.3287 dc         1 CLA      0.006600
    111 H102       86.3881   55.7864   39.5771 dc         1 CLA      0.024100
    112 H101       88.1752   55.5535   39.4577 dc         1 CLA      0.024100
    113 HHD        73.2024   58.1105   40.5184 da         1 CLA      0.174300
    114 HHC        77.5433   61.6870   43.4400 da         1 CLA      0.136800
    115 HHB        81.7852   60.4977   38.7625 da         1 CLA      0.138300
    116 HBD        76.7685   57.0046   34.5464 dc         1 CLA      0.107700
    117 HAB        80.9153   63.4059   43.2618 da         1 CLA      0.155200
    118 H93        88.4954   57.4350   36.4326 dc         1 CLA      0.069500
    119 H92        88.2718   58.5391   37.7293 dc         1 CLA      0.069500
    120 H91        89.3057   57.1379   37.8961 dc         1 CLA      0.069500
    121 H8         86.2479   57.3775   37.8569 dc         1 CLA      0.029300
    122 H72        86.0132   54.9950   37.3246 dc         1 CLA      0.044400
    123 H71        87.7246   54.8701   37.0570 dc         1 CLA      0.044400
    124 H62        87.4332   56.1601   34.9920 dc         1 CLA      0.015600
    125 H61        85.8715   56.6868   35.4446 dc         1 CLA      0.015600
    126 H52        86.9892   53.8882   34.7941 dc         1 CLA      0.033200
    127 H51        86.0438   54.8708   33.6843 dc         1 CLA      0.033200
    128 H43        85.3020   51.7612   34.8263 dc         1 CLA      0.037000
    129 H42        85.4425   52.3196   36.5807 dc         1 CLA      0.037000
    130 H41        83.8314   52.2726   35.8133 dc         1 CLA      0.037000
    131 H3A        81.2854   59.5317   36.0010 dc         1 CLA      0.041100
    132 H2A        79.9278   56.9110   35.9854 dc         1 CLA      0.083100
    133 H2         83.3964   55.0642   36.1392 da         1 CLA      0.180900
    134 H18        85.7402   56.9766   48.3369 dc         1 CLA     -0.003900
    135 H13        86.2354   57.9865   43.0435 dc         1 CLA      0.019700
    136 H12        81.8625   54.1793   34.1076 dc         1 CLA      0.120400
    137 H11        83.2030   54.7741   33.0825 dc         1 CLA      0.120400
    138 C1         69.7898   61.9516   50.3810 Z1         2 LUT      0.509236
    139 C2         68.5132   61.4873   51.0277 Z2         2 LUT     -0.434695
    140 C3         67.6823   62.6595   51.5008 Z3         2 LUT      0.437453
    141 O3         68.1119   63.0114   52.8126 S1         2 LUT     -0.547129
    142 C4         67.6744   63.9543   50.6513 Z4         2 LUT     -0.468603
    143 C5         68.4458   63.9240   49.4573 Z5         2 LUT      0.279246
    144 C6         69.4356   63.0035   49.3089 Z6         2 LUT     -0.305473
    145 C7         69.7985   62.7077   47.9363 Z7         2 LUT      0.069402
    146 C8         70.9734   62.9807   47.3077 Z8         2 LUT     -0.191631
    147 C9         71.3303   62.5897   45.9387 Z9         2 LUT      0.196698
    148 C10        72.2609   63.3039   45.2156 Y1         2 LUT     -0.208611
    149 C11        72.7268   63.1740   43.8637 Y2         2 LUT      0.030784
    150 C12        73.9447   63.6362   43.4120 Y3         2 LUT     -0.220316
    151 C13        74.6317   63.5576   42.1841 Y4         2 LUT      0.215937
    152 C14        75.8871   64.1585   42.0494 Y5         2 LUT     -0.185793
    153 C15        76.8925   64.2224   40.9740 Y6         2 LUT     -0.057835
    154 C16        70.4793   60.6938   49.8945 Y7         2 LUT     -0.405615
    155 C17        70.7335   62.5790   51.4775 Y7         2 LUT     -0.405615
    156 C18        68.0168   64.9503   48.4116 Y9         2 LUT     -0.369639
    157 C19        70.6939   61.2979   45.3818 W1         2 LUT     -0.333362
    158 C20        74.0962   62.9456   40.9024 W2         2 LUT     -0.323439
    159 C21        88.3295   65.5998   34.7582 Z1         2 LUT      0.406104
    160 C22        89.0162   65.0208   33.4334 Z2         2 LUT     -0.404965
    161 C23        89.0592   65.9764   32.2554 Z3         2 LUT      0.391255
    162 O23        89.4448   65.2122   31.0325 S1         2 LUT     -0.528210
    163 C24        87.8722   66.8796   32.1945 W6         2 LUT     -0.258361
    164 C25        86.8331   66.8242   33.0546 Z5         2 LUT      0.133546
    165 C26        86.8311   65.9996   34.3503 W8         2 LUT     -0.147008
    166 C27        85.9764   66.4034   35.4601 Z7         2 LUT      0.023843
    167 C28        84.8553   65.8801   35.9497 Z8         2 LUT     -0.216987
    168 C29        84.2729   66.1772   37.2236 Z9         2 LUT      0.206524
    169 C30        83.0356   65.6458   37.4633 Y1         2 LUT     -0.215556
    170 C31        82.2626   65.9104   38.6465 Y2         2 LUT      0.025142
    171 C32        81.0708   65.3219   38.9979 Y3         2 LUT     -0.212209
    172 C33        80.2926   65.4993   40.2129 Y4         2 LUT      0.240937
    173 C34        79.0574   64.8978   40.2032 Y5         2 LUT     -0.218862
    174 C35        78.0842   64.8026   41.2252 Y6         2 LUT     -0.023547
    175 C36        89.0991   66.7732   35.3130 Y7         2 LUT     -0.393485
    176 C37        88.3688   64.5045   35.7668 Y7         2 LUT     -0.393485
    177 C38        85.5434   67.6621   32.8522 Y9         2 LUT     -0.387526
    178 C39        85.0336   66.9210   38.3003 W1         2 LUT     -0.322618
    179 C40        80.9981   65.8822   41.5604 W2         2 LUT     -0.358472
    180 H403       80.3840   65.5661   42.4519 R7         2 LUT      0.097720
    181 H402       81.9778   65.4230   41.7300 R7         2 LUT      0.097720
    182 H401       81.0361   66.9627   41.6073 R7         2 LUT      0.097720
    183 H393       84.8564   66.3845   39.2259 R4         2 LUT      0.082505
    184 H392       86.0866   66.9159   38.1260 R4         2 LUT      0.082505
    185 H391       84.7825   67.9689   38.5252 R4         2 LUT      0.082505
    186 H383       85.5234   68.0331   31.8246 R1         2 LUT      0.104030
    187 H382       84.6421   67.2533   32.9612 R1         2 LUT      0.104030
    188 H381       85.5099   68.5303   33.4738 R1         2 LUT      0.104030
    189 H373       89.4026   64.4287   36.1002 T4         2 LUT      0.089537
    190 H372       87.7847   64.6533   36.6572 T4         2 LUT      0.089537
    191 H371       87.8926   63.6718   35.2673 T4         2 LUT      0.089537
    192 H363       88.8002   67.6485   34.8348 T4         2 LUT      0.089537
    193 H362       88.9383   66.9570   36.3801 T4         2 LUT      0.089537
    194 H361       90.2052   66.5866   35.1558 T4         2 LUT      0.089537
    195 H222       90.0153   64.6505   33.5864 U2         2 LUT      0.127376
    196 H221       88.5872   64.1137   33.0268 U2         2 LUT      0.127376
    197 H203       74.9193   62.3167   40.5013 R7         2 LUT      0.087068
    198 H202       73.2228   62.3017   41.0591 R7         2 LUT      0.087068
    199 H201       73.7739   63.6885   40.1717 R7         2 LUT      0.087068
    200 H193       69.6462   61.2234   45.7658 R4         2 LUT      0.089716
    201 H192       70.7171   61.1514   44.2693 R4         2 LUT      0.089716
    202 H191       71.2635   60.4483   45.8148 R4         2 LUT      0.089716
    203 H183       67.0352   65.3361   48.5900 R1         2 LUT      0.094572
    204 H182       68.8493   65.6428   48.4086 R1         2 LUT      0.094572
    205 H181       67.8868   64.4395   47.4485 R1         2 LUT      0.094572
    206 H173       70.5011   63.6258   51.6329 T4         2 LUT      0.093752
    207 H172       70.6872   62.0698   52.4612 T4         2 LUT      0.093752
    208 H171       71.7242   62.5801   51.1960 T4         2 LUT      0.093752
    209 H163       70.4984   59.9370   50.6472 T4         2 LUT      0.093752
    210 H162       69.9231   60.3249   49.0886 T4         2 LUT      0.093752
    211 H161       71.4904   60.8048   49.5346 T4         2 LUT      0.093752
    212 HO3        67.3863   63.0810   53.3725 Q1         2 LUT      0.300121
    213 H8         71.7451   63.6200   47.7882 U7         2 LUT      0.080784
    214 H7         68.9026   62.2222   47.4765 U6         2 LUT      0.042190
    215 H42        66.6270   64.2440   50.4595 U5         2 LUT      0.145166
    216 H41        67.9027   64.8346   51.3071 U5         2 LUT      0.145166
    217 H35        78.1850   65.3533   42.1771 T3         2 LUT      0.077919
    218 H34        78.7517   64.2436   39.3114 T2         2 LUT      0.073626
    219 H32        80.7224   64.5532   38.2583 T1         2 LUT      0.092510
    220 H31        82.5960   66.5476   39.4944 U9         2 LUT      0.070048
    221 H30        82.6083   65.1582   36.6131 U8         2 LUT      0.085442
    222 H3         66.6980   62.2503   51.5123 U3         2 LUT     -0.031596
    223 H28        84.3846   65.2795   35.2429 U7         2 LUT      0.084728
    224 H27        86.4653   67.1133   36.0714 U6         2 LUT      0.087291
    225 H26        86.3008   65.1391   33.9748 Q6         2 LUT      0.075325
    226 H24        87.8279   67.4209   31.2232 Q5         2 LUT      0.094482
    227 H23        89.9498   66.6162   32.5121 U3         2 LUT     -0.024869
    228 H22        68.0226   60.8478   50.2233 U2         2 LUT      0.127376
    229 H21        68.6925   60.8400   51.8812 U2         2 LUT      0.127376
    230 H15        76.6723   63.7734   40.0245 T3         2 LUT      0.093200
    231 H14        76.2375   64.7573   42.8868 T2         2 LUT      0.068865
    232 H12        74.4882   64.1722   44.1753 T1         2 LUT      0.095507
    233 H11        72.0734   62.6369   43.2160 U9         2 LUT      0.068930
    234 H10        72.7369   64.1878   45.6953 U8         2 LUT      0.083911
    235 H1         89.4634   65.7775   30.2317 Q1         2 LUT      0.297311
@<TRIPOS>BOND
    1     6     1 1
    2     7     2 1
    3     8     3 1
    4     9     4 1
    5    11     4 1
    6    12     6 1
    7    13     9 1
    8    16     9 1
    9    25     5 1
   10    25    16 1
   11    26    10 1
   12    26    17 1
   13    27    18 1
   14    28    14 1
   15    28    19 1
   16    29    12 1
   17    30    13 1
   18    31    24 1
   19    32     1 1
   20    32    25 1
   21    33    21 1
   22    33    26 1
   23    34    22 1
   24    34    27 1
   25    35    23 1
   26    35    28 1
   27    36    12 1
   28    36    24 1
   29    37    13 1
   30    37    15 1
   31    38    31 1
   32    39    20 1
   33    39    32 1
   34    40     2 1
   35    40    33 1
   36    41     3 1
   37    41    34 1
   38    42     4 1
   39    42    35 1
   40    43    38 1
   41    44     5 1
   42    44    17 1
   43    44    39 1
   44    45    10 1
   45    45    18 1
   46    45    40 1
   47    46    19 1
   48    46    41 1
   49    47    14 1
   50    47    16 1
   51    47    42 1
   52    48    38 1
   53    49    48 1
   54    50    49 1
   55    51    50 1
   56    52    51 1
   57    53    51 1
   58    54    53 1
   59    55    54 1
   60    56    55 1
   61    57    56 1
   62    58    56 1
   63    59    58 1
   64    60    59 1
   65    61    60 1
   66    62    61 1
   67    63    61 1
   68    64    27 1
   69    64    46 1
   70    65     5 1
   71    65    10 1
   72    65    64 1
   73    65    14 1
   74    66    23 1
   75    67    23 1
   76    68    23 1
   77    69    22 1
   78    70    22 1
   79    71    22 1
   80    72    21 1
   81    73    21 1
   82    74    21 1
   83    75    20 1
   84    76    20 1
   85    77    20 1
   86    78    15 1
   87    79    15 1
   88    80    15 1
   89    81     8 1
   90    82     8 1
   91    83     8 1
   92    84     7 1
   93    85     7 1
   94    86     6 1
   95    87     6 1
   96    88     3 1
   97    89     3 1
   98    90     1 1
   99    91     1 1
  100    92    63 1
  101    93    63 1
  102    94    63 1
  103    95    62 1
  104    96    62 1
  105    97    62 1
  106    98    60 1
  107    99    60 1
  108   100    59 1
  109   101    59 1
  110   102    58 1
  111   103    58 1
  112   104    57 1
  113   105    57 1
  114   106    57 1
  115   107    55 1
  116   108    55 1
  117   109    54 1
  118   110    54 1
  119   111    53 1
  120   112    53 1
  121   113    19 1
  122   114    18 1
  123   115    17 1
  124   116     9 1
  125   117     2 1
  126   118    52 1
  127   119    52 1
  128   120    52 1
  129   121    51 1
  130   122    50 1
  131   123    50 1
  132   124    49 1
  133   125    49 1
  134   126    48 1
  135   127    48 1
  136   128    43 1
  137   129    43 1
  138   130    43 1
  139   131    39 1
  140   132    32 1
  141   133    31 1
  142   134    61 1
  143   135    56 1
  144   136    24 1
  145   137    24 1
  146   139   138 1
  147   140   139 1
  148   141   140 1
  149   142   140 1
  150   143   142 1
  151   144   138 1
  152   144   143 1
  153   145   144 1
  154   146   145 1
  155   147   146 1
  156   148   147 1
  157   149   148 1
  158   150   149 1
  159   151   150 1
  160   152   151 1
  161   153   152 1
  162   154   138 1
  163   155   138 1
  164   156   143 1
  165   157   147 1
  166   158   151 1
  167   160   159 1
  168   161   160 1
  169   162   161 1
  170   163   161 1
  171   164   163 1
  172   165   159 1
  173   165   164 1
  174   166   165 1
  175   167   166 1
  176   168   167 1
  177   169   168 1
  178   170   169 1
  179   171   170 1
  180   172   171 1
  181   173   172 1
  182   174   153 1
  183   174   173 1
  184   175   159 1
  185   176   159 1
  186   177   164 1
  187   178   168 1
  188   179   172 1
  189   180   179 1
  190   181   179 1
  191   182   179 1
  192   183   178 1
  193   184   178 1
  194   185   178 1
  195   186   177 1
  196   187   177 1
  197   188   177 1
  198   189   176 1
  199   190   176 1
  200   191   176 1
  201   192   175 1
  202   193   175 1
  203   194   175 1
  204   195   160 1
  205   196   160 1
  206   197   158 1
  207   198   158 1
  208   199   158 1
  209   200   157 1
  210   201   157 1
  211   202   157 1
  212   203   156 1
  213   204   156 1
  214   205   156 1
  215   206   155 1
  216   207   155 1
  217   208   155 1
  218   209   154 1
  219   210   154 1
  220   211   154 1
  221   212   141 1
  222   213   146 1
  223   214   145 1
  224   215   142 1
  225   216   142 1
  226   217   174 1
  227   218   173 1
  228   219   171 1
  229   220   170 1
  230   221   169 1
  231   222   140 1
  232   223   167 1
  233   224   166 1
  234   225   165 1
  235   226   163 1
  236   227   161 1
  237   228   139 1
  238   229   139 1
  239   230   153 1
  240   231   152 1
  241   232   150 1
  242   233   149 1
  243   234   148 1
  244   235   162 1
  245   65    153 1
  246   65    174 1
@<TRIPOS>SUBSTRUCTURE
      1 CLA               1 ****               0 ****  **** 
      2 LUT             138 ****               0 ****  **** 
