@<TRIPOS>MOLECULE
Cpptraj generated mol2 file.
  235   246     2     0     0
SMALL
USER_CHARGES


@<TRIPOS>ATOM
      1 CAA        79.8458   58.2344   34.4908 a2         1 CLA     -0.055900
      2 CAB        80.1213   62.2338   43.5153 c8         1 CLA     -0.148500
      3 CAC        72.9771   58.1037   43.0764 a2         1 CLA     -0.012600
      4 CAD        75.8614   55.4948   35.8529 ck         1 CLA      0.398800
      5 NA         78.9757   58.5668   37.9739 ns         1 CLA     -0.225500
      6 CBA        81.0946   58.2350   33.6518 a2         1 CLA     -0.135000
      7 CBB        79.5296   62.0623   44.7339 c0         1 CLA     -0.395200
      8 CBC        73.1288   56.6647   43.4507 a3         1 CLA     -0.037700
      9 CBD        77.3276   56.0802   35.6357 a1         1 CLA     -0.053900
     10 NB         78.8736   60.2421   40.5268 nm         1 CLA     -0.295700
     11 OBD        75.3117   54.7065   35.0957 o2         1 CLA     -0.494600
     12 CGA        81.7177   56.9419   33.1857 c4         1 CLA      0.827000
     13 CGD        78.4000   54.9756   35.5019 c4         1 CLA      0.655300
     14 ND         76.2427   57.5097   38.7023 nm         1 CLA     -0.291600
     15 CED        79.3907   52.9492   36.3442 a3         1 CLA      0.005400
     16 CHA        77.5908   57.1344   36.7265 cs         1 CLA     -0.123800
     17 CHB        80.6616   60.3461   38.7212 aa         1 CLA     -0.291900
     18 CHC        77.5289   60.4750   42.5286 aa         1 CLA     -0.090400
     19 CHD        74.3447   57.4678   40.1929 aa         1 CLA     -0.052000
     20 CMA        82.2490   58.1108   37.4088 a3         1 CLA     -0.230700
     21 CMB        82.0751   62.0145   40.9992 a3         1 CLA     -0.180800
     22 CMC        75.0402   60.2179   44.5388 a3         1 CLA     -0.134000
     23 CMD        73.3237   55.2042   38.2713 a3         1 CLA     -0.141100
     24 C1         82.3359   54.8193   33.9952 a2         1 CLA      0.023000
     25 C1A        78.7751   57.8399   36.8894 ac         1 CLA     -0.015100
     26 C1B        80.0817   60.6805   40.0191 cr         1 CLA      0.054700
     27 C1C        76.4105   59.6746   42.2386 cn         1 CLA     -0.005600
     28 C1D        74.9312   57.0349   39.0575 ap         1 CLA     -0.047300
     29 O1A        81.7230   56.4868   32.0317 o2         1 CLA     -0.610800
     30 O1D        79.1995   54.8125   34.6157 o2         1 CLA     -0.558200
     31 C2         82.8811   54.2248   35.2416 c8         1 CLA     -0.325100
     32 C2A        80.0398   57.8308   35.9756 a1         1 CLA      0.098600
     33 C2B        80.7523   61.4141   41.1016 cb         1 CLA      0.088500
     34 C2C        75.1658   59.5821   43.1430 cb         1 CLA      0.053700
     35 C2D        74.4675   56.1367   38.1043 cb         1 CLA      0.058900
     36 O2A        82.1414   56.2444   34.3042 o1         1 CLA     -0.437200
     37 O2D        78.4684   54.0877   36.5098 o1         1 CLA     -0.357600
     38 C3         83.6060   53.1387   35.3066 c5         1 CLA      0.031200
     39 C3A        81.0372   58.7645   36.7684 a1         1 CLA      0.166800
     40 C3B        79.9374   61.4564   42.2418 cb         1 CLA      0.035000
     41 C3C        74.2911   58.7313   42.4877 cb         1 CLA     -0.089900
     42 C3D        75.5109   56.0716   37.1152 cb         1 CLA     -0.035900
     43 C4         83.0622   51.7621   35.6475 a3         1 CLA     -0.053300
     44 C4A        80.1555   59.2931   37.8867 ac         1 CLA      0.001800
     45 C4B        78.7244   60.7623   41.7881 cn         1 CLA     -0.020900
     46 C4C        74.9089   58.3836   41.2048 cr         1 CLA     -0.044400
     47 C4D        76.5138   56.9352   37.5688 c6         1 CLA     -0.046000
     48 C5         85.1014   53.2942   35.2867 a2         1 CLA     -0.070400
     49 C6         85.7330   54.2907   36.3369 a2         1 CLA      0.043900
     50 C7         87.2706   54.0087   36.6602 a2         1 CLA     -0.150000
     51 C8         87.9848   54.9898   37.6492 a1         1 CLA      0.064200
     52 C9         89.5009   54.5429   37.8700 a3         1 CLA     -0.259300
     53 C10        87.2233   55.0341   38.9957 a2         1 CLA     -0.071900
     54 C11        87.8429   55.9125   40.1282 a2         1 CLA      0.014500
     55 C12        86.7561   56.3216   41.2061 a2         1 CLA     -0.112100
     56 C13        87.3640   57.2076   42.3703 a1         1 CLA      0.089200
     57 C14        88.4485   56.4801   43.2405 a3         1 CLA     -0.239100
     58 C15        86.1822   57.6582   43.2866 a2         1 CLA     -0.102200
     59 C16        86.4816   58.7109   44.3427 a2         1 CLA      0.023900
     60 C17        85.2302   59.5035   44.7548 a2         1 CLA     -0.105700
     61 C18        84.2278   58.6980   45.6040 a1         1 CLA      0.206800
     62 C19        84.7418   58.2300   47.0054 a3         1 CLA     -0.280100
     63 C20        82.9132   59.6467   45.6089 a3         1 CLA     -0.280100
     64 NC         76.1498   58.9747   41.0810 nx         1 CLA     -0.309200
     65 MG         77.5296   58.8906   39.5494 mg         1 CLA      0.895000
     66 HMD3       72.3329   55.5924   38.1464 dc         1 CLA      0.064300
     67 HMD2       73.5212   54.4274   37.4818 dc         1 CLA      0.064300
     68 HMD1       73.3696   54.7736   39.2680 dc         1 CLA      0.064300
     69 HMC3       75.7084   59.8678   45.3147 dc         1 CLA      0.052100
     70 HMC2       75.2061   61.2697   44.4334 dc         1 CLA      0.052100
     71 HMC1       74.0513   60.1514   44.9235 dc         1 CLA      0.052100
     72 HMB3       82.3644   62.4716   41.9712 dc         1 CLA      0.063600
     73 HMB2       82.7597   61.1742   40.9557 dc         1 CLA      0.063600
     74 HMB1       82.1823   62.7675   40.3065 dc         1 CLA      0.063600
     75 HMA3       82.7011   57.4731   36.6526 dc         1 CLA      0.058300
     76 HMA2       82.9680   58.7472   37.9376 dc         1 CLA      0.058300
     77 HMA1       81.7726   57.3952   38.0875 dc         1 CLA      0.058300
     78 HED3       79.2464   52.3014   37.2596 dc         1 CLA      0.079300
     79 HED2       79.3108   52.1931   35.5064 dc         1 CLA      0.079300
     80 HED1       80.4338   53.2686   36.4058 dc         1 CLA      0.079300
     81 HBC3       72.2845   56.2457   44.0442 dc         1 CLA      0.016300
     82 HBC2       73.2743   56.1466   42.5400 dc         1 CLA      0.016300
     83 HBC1       73.9902   56.5034   44.0954 dc         1 CLA      0.016300
     84 HBB2       79.9104   62.6207   45.6672 da         1 CLA      0.183000
     85 HBB1       78.8406   61.2307   44.9146 da         1 CLA      0.183000
     86 HBA2       80.8088   58.6696   32.6710 dc         1 CLA      0.029400
     87 HBA1       81.9202   58.7858   34.1265 dc         1 CLA      0.029400
     88 HAC2       72.7151   58.5037   44.0540 dc         1 CLA      0.029300
     89 HAC1       72.1163   58.2885   42.3400 dc         1 CLA      0.029300
     90 HAA2       79.2285   57.4910   34.0278 dc         1 CLA      0.028700
     91 HAA1       79.3242   59.2065   34.4544 dc         1 CLA      0.028700
     92 H203       82.5660   59.7436   44.6005 dc         1 CLA      0.065600
     93 H202       82.1224   59.4207   46.2630 dc         1 CLA      0.065600
     94 H201       83.1958   60.6648   45.9675 dc         1 CLA      0.065600
     95 H193       85.5451   57.4377   46.9896 dc         1 CLA      0.065600
     96 H192       85.1389   59.0264   47.6004 dc         1 CLA      0.065600
     97 H191       83.8648   57.8089   47.5182 dc         1 CLA      0.065600
     98 H172       85.5149   60.4178   45.3235 dc         1 CLA      0.027600
     99 H171       84.7121   59.9000   43.8420 dc         1 CLA      0.027600
    100 H162       86.9468   58.2692   45.2410 dc         1 CLA      0.002900
    101 H161       87.1650   59.4637   43.8944 dc         1 CLA      0.002900
    102 H152       85.5453   58.0216   42.5252 dc         1 CLA      0.029100
    103 H151       85.6606   56.7816   43.6643 dc         1 CLA      0.029100
    104 H143       89.3799   56.4039   42.6708 dc         1 CLA      0.063600
    105 H142       88.7298   57.0086   44.1179 dc         1 CLA      0.063600
    106 H141       88.1402   55.5257   43.5836 dc         1 CLA      0.063600
    107 H122       85.9684   56.8920   40.6301 dc         1 CLA      0.032500
    108 H121       86.2030   55.5128   41.5186 dc         1 CLA      0.032500
    109 H112       88.6811   55.3005   40.5043 dc         1 CLA      0.006600
    110 H111       88.1928   56.8714   39.6841 dc         1 CLA      0.006600
    111 H102       86.2573   55.5957   38.7360 dc         1 CLA      0.024100
    112 H101       86.9876   54.0444   39.3758 dc         1 CLA      0.024100
    113 HHD        73.3077   57.1937   40.3633 da         1 CLA      0.174300
    114 HHC        77.5240   60.9774   43.4648 da         1 CLA      0.136800
    115 HHB        81.7045   60.6400   38.4908 da         1 CLA      0.138300
    116 HBD        77.2578   56.5120   34.6264 dc         1 CLA      0.107700
    117 HAB        80.9321   62.9861   43.4715 da         1 CLA      0.155200
    118 H93        89.9225   54.2678   36.8856 dc         1 CLA      0.069500
    119 H92        90.0803   55.2946   38.3921 dc         1 CLA      0.069500
    120 H91        89.4851   53.6537   38.5883 dc         1 CLA      0.069500
    121 H8         88.0466   55.9500   37.2318 dc         1 CLA      0.029300
    122 H72        87.4457   52.9631   37.0607 dc         1 CLA      0.044400
    123 H71        87.7434   54.1404   35.6918 dc         1 CLA      0.044400
    124 H62        85.6104   55.3424   35.8921 dc         1 CLA      0.015600
    125 H61        85.1960   54.1854   37.3221 dc         1 CLA      0.015600
    126 H52        85.6226   52.3510   35.3996 dc         1 CLA      0.033200
    127 H51        85.4723   53.5114   34.3025 dc         1 CLA      0.033200
    128 H43        83.5197   51.4661   36.6492 dc         1 CLA      0.037000
    129 H42        82.0095   51.8387   35.8370 dc         1 CLA      0.037000
    130 H41        83.3372   51.0946   34.8770 dc         1 CLA      0.037000
    131 H3A        81.2394   59.5940   36.0544 dc         1 CLA      0.041100
    132 H2A        80.4186   56.7812   36.0091 dc         1 CLA      0.083100
    133 H2         82.7129   54.7466   36.1479 da         1 CLA      0.180900
    134 H18        83.9728   57.8250   45.0756 dc         1 CLA     -0.003900
    135 H13        87.7585   58.1827   41.9639 dc         1 CLA      0.019700
    136 H12        81.4293   54.2234   33.8754 dc         1 CLA      0.120400
    137 H11        83.0436   54.5810   33.2026 dc         1 CLA      0.120400
    138 C1         70.2763   61.6675   50.0962 Z1         2 LUT      0.509236
    139 C2         69.8797   62.7261   51.1883 Z2         2 LUT     -0.434695
    140 C3         68.4206   63.0123   51.1353 Z3         2 LUT      0.437453
    141 O3         68.1167   63.8056   52.2976 S1         2 LUT     -0.547129
    142 C4         68.0452   63.6736   49.8269 Z4         2 LUT     -0.468603
    143 C5         68.7305   63.0707   48.5717 Z5         2 LUT      0.279246
    144 C6         69.7127   62.1009   48.6842 Z6         2 LUT     -0.305473
    145 C7         70.4915   61.7439   47.4430 Z7         2 LUT      0.069402
    146 C8         71.3966   62.5354   46.8354 Z8         2 LUT     -0.191631
    147 C9         71.8124   62.2932   45.4941 Z9         2 LUT      0.196698
    148 C10        72.7169   63.1867   45.0580 Y1         2 LUT     -0.208611
    149 C11        73.4222   63.2698   43.7710 Y2         2 LUT      0.030784
    150 C12        74.6305   63.8401   43.6284 Y3         2 LUT     -0.220316
    151 C13        75.5852   63.7365   42.5514 Y4         2 LUT      0.215937
    152 C14        76.7630   64.3603   42.6673 Y5         2 LUT     -0.185793
    153 C15        77.8789   64.1617   41.8069 Y6         2 LUT     -0.057835
    154 C16        69.6678   60.2659   50.3764 Y7         2 LUT     -0.405615
    155 C17        71.7420   61.2916   50.0794 Y7         2 LUT     -0.405615
    156 C18        68.5685   63.9501   47.3390 Y9         2 LUT     -0.369639
    157 C19        71.3210   61.1519   44.6770 W1         2 LUT     -0.333362
    158 C20        75.2715   62.9693   41.3196 W2         2 LUT     -0.323439
    159 C21        88.4466   65.1822   35.2224 Z1         2 LUT      0.406104
    160 C22        89.1860   64.5632   34.1164 Z2         2 LUT     -0.404965
    161 C23        89.5699   65.5331   32.9659 Z3         2 LUT      0.391255
    162 O23        89.9064   64.6539   31.9002 S1         2 LUT     -0.528210
    163 C24        88.3957   66.4309   32.5876 W6         2 LUT     -0.258361
    164 C25        87.2693   66.6000   33.3201 Z5         2 LUT      0.133546
    165 C26        87.0812   65.8388   34.6580 W8         2 LUT     -0.147008
    166 C27        86.3534   66.6274   35.6625 Z7         2 LUT      0.023843
    167 C28        85.5066   65.9645   36.5020 Z8         2 LUT     -0.216987
    168 C29        85.0361   66.4368   37.7796 Z9         2 LUT      0.206524
    169 C30        84.0899   65.6652   38.4041 Y1         2 LUT     -0.215556
    170 C31        83.3641   65.9673   39.6026 Y2         2 LUT      0.025142
    171 C32        82.1054   65.4364   39.8342 Y3         2 LUT     -0.212209
    172 C33        81.1848   65.6635   40.8826 Y4         2 LUT      0.240937
    173 C34        80.0302   64.8620   41.0055 Y5         2 LUT     -0.218862
    174 C35        78.9148   64.9904   41.8447 Y6         2 LUT     -0.023547
    175 C36        89.2867   66.2537   35.9416 Y7         2 LUT     -0.393485
    176 C37        88.1792   64.0007   36.2060 Y7         2 LUT     -0.393485
    177 C38        86.0921   67.4123   32.7793 Y9         2 LUT     -0.387526
    178 C39        85.6544   67.6251   38.4534 W1         2 LUT     -0.322618
    179 C40        81.5853   66.6176   42.0039 W2         2 LUT     -0.358472
    180 H403       80.9668   66.3525   42.8679 R7         2 LUT      0.097720
    181 H402       82.5519   66.6069   42.3438 R7         2 LUT      0.097720
    182 H401       81.4749   67.6314   41.6830 R7         2 LUT      0.097720
    183 H393       85.2338   67.7478   39.3911 R4         2 LUT      0.082505
    184 H392       86.7084   67.4614   38.6184 R4         2 LUT      0.082505
    185 H391       85.5895   68.4488   37.6284 R4         2 LUT      0.082505
    186 H383       85.1944   66.9088   32.8525 R1         2 LUT      0.104030
    187 H382       85.9467   68.4235   33.2603 R1         2 LUT      0.104030
    188 H381       86.3641   67.6578   31.7161 R1         2 LUT      0.104030
    189 H373       89.0151   63.6237   36.7562 T4         2 LUT      0.089537
    190 H372       87.5411   64.3898   37.0332 T4         2 LUT      0.089537
    191 H371       87.7055   63.1196   35.7082 T4         2 LUT      0.089537
    192 H363       88.8947   66.6952   36.8636 T4         2 LUT      0.089537
    193 H362       90.1367   65.7150   36.2214 T4         2 LUT      0.089537
    194 H361       89.5557   66.9796   35.2417 T4         2 LUT      0.089537
    195 H222       90.1276   64.1281   34.4210 U2         2 LUT      0.127376
    196 H221       88.6777   63.6593   33.7371 U2         2 LUT      0.127376
    197 H203       74.4285   62.3383   41.5521 R7         2 LUT      0.087068
    198 H202       75.0591   63.4929   40.4475 R7         2 LUT      0.087068
    199 H201       76.0565   62.2327   41.0458 R7         2 LUT      0.087068
    200 H193       71.5096   60.2066   45.0871 R4         2 LUT      0.089716
    201 H192       70.2865   61.3044   44.4347 R4         2 LUT      0.089716
    202 H191       71.7834   61.2276   43.7287 R4         2 LUT      0.089716
    203 H183       68.7866   63.2608   46.5485 R1         2 LUT      0.094572
    204 H182       67.5004   64.2382   47.2760 R1         2 LUT      0.094572
    205 H181       69.2194   64.8038   47.3221 R1         2 LUT      0.094572
    206 H173       72.1003   60.4082   49.4661 T4         2 LUT      0.093752
    207 H172       72.2742   62.1776   49.6682 T4         2 LUT      0.093752
    208 H171       72.0191   61.1048   51.0745 T4         2 LUT      0.093752
    209 H163       69.5935   59.4927   49.5559 T4         2 LUT      0.093752
    210 H162       70.2461   59.7272   51.2328 T4         2 LUT      0.093752
    211 H161       68.6151   60.3150   50.6804 T4         2 LUT      0.093752
    212 HO3        68.1196   63.1815   53.1017 Q1         2 LUT      0.300121
    213 H8         71.5344   63.5323   47.2330 U7         2 LUT      0.080784
    214 H7         70.1377   60.9253   46.8685 U6         2 LUT      0.042190
    215 H42        66.9629   63.6821   49.8363 U5         2 LUT      0.145166
    216 H41        68.3189   64.7359   49.8337 U5         2 LUT      0.145166
    217 H35        78.9567   65.9055   42.5429 T3         2 LUT      0.077919
    218 H34        79.9761   64.0995   40.2160 T2         2 LUT      0.073626
    219 H32        81.7838   64.6996   39.1307 T1         2 LUT      0.092510
    220 H31        83.7020   66.7121   40.3115 U9         2 LUT      0.070048
    221 H30        83.8235   64.7289   37.9047 U8         2 LUT      0.085442
    222 H3         67.7867   62.0978   51.0643 U3         2 LUT     -0.031596
    223 H28        85.0288   65.0812   36.0815 U7         2 LUT      0.084728
    224 H27        86.7709   67.5508   35.9222 U6         2 LUT      0.087291
    225 H26        86.3138   65.0945   34.4364 Q6         2 LUT      0.075325
    226 H24        88.3232   66.8020   31.6267 Q5         2 LUT      0.094482
    227 H23        90.4252   66.2402   33.2682 U3         2 LUT     -0.024869
    228 H22        70.1869   62.2470   52.0532 U2         2 LUT      0.127376
    229 H21        70.3728   63.6254   50.9698 U2         2 LUT      0.127376
    230 H15        77.9732   63.3920   41.0373 T3         2 LUT      0.093200
    231 H14        76.9137   65.0855   43.4210 T2         2 LUT      0.068865
    232 H12        75.0953   64.3496   44.4969 T1         2 LUT      0.095507
    233 H11        73.0372   62.6633   43.0712 U9         2 LUT      0.068930
    234 H10        72.9348   63.9880   45.7381 U8         2 LUT      0.083911
    235 H1         90.2470   65.1574   31.1060 Q1         2 LUT      0.297311
@<TRIPOS>BOND
    1     6     1 1
    2     7     2 1
    3     8     3 1
    4     9     4 1
    5    11     4 1
    6    12     6 1
    7    13     9 1
    8    16     9 1
    9    25     5 1
   10    25    16 1
   11    26    10 1
   12    26    17 1
   13    27    18 1
   14    28    14 1
   15    28    19 1
   16    29    12 1
   17    30    13 1
   18    31    24 1
   19    32     1 1
   20    32    25 1
   21    33    21 1
   22    33    26 1
   23    34    22 1
   24    34    27 1
   25    35    23 1
   26    35    28 1
   27    36    12 1
   28    36    24 1
   29    37    13 1
   30    37    15 1
   31    38    31 1
   32    39    20 1
   33    39    32 1
   34    40     2 1
   35    40    33 1
   36    41     3 1
   37    41    34 1
   38    42     4 1
   39    42    35 1
   40    43    38 1
   41    44     5 1
   42    44    17 1
   43    44    39 1
   44    45    10 1
   45    45    18 1
   46    45    40 1
   47    46    19 1
   48    46    41 1
   49    47    14 1
   50    47    16 1
   51    47    42 1
   52    48    38 1
   53    49    48 1
   54    50    49 1
   55    51    50 1
   56    52    51 1
   57    53    51 1
   58    54    53 1
   59    55    54 1
   60    56    55 1
   61    57    56 1
   62    58    56 1
   63    59    58 1
   64    60    59 1
   65    61    60 1
   66    62    61 1
   67    63    61 1
   68    64    27 1
   69    64    46 1
   70    65     5 1
   71    65    10 1
   72    65    64 1
   73    65    14 1
   74    66    23 1
   75    67    23 1
   76    68    23 1
   77    69    22 1
   78    70    22 1
   79    71    22 1
   80    72    21 1
   81    73    21 1
   82    74    21 1
   83    75    20 1
   84    76    20 1
   85    77    20 1
   86    78    15 1
   87    79    15 1
   88    80    15 1
   89    81     8 1
   90    82     8 1
   91    83     8 1
   92    84     7 1
   93    85     7 1
   94    86     6 1
   95    87     6 1
   96    88     3 1
   97    89     3 1
   98    90     1 1
   99    91     1 1
  100    92    63 1
  101    93    63 1
  102    94    63 1
  103    95    62 1
  104    96    62 1
  105    97    62 1
  106    98    60 1
  107    99    60 1
  108   100    59 1
  109   101    59 1
  110   102    58 1
  111   103    58 1
  112   104    57 1
  113   105    57 1
  114   106    57 1
  115   107    55 1
  116   108    55 1
  117   109    54 1
  118   110    54 1
  119   111    53 1
  120   112    53 1
  121   113    19 1
  122   114    18 1
  123   115    17 1
  124   116     9 1
  125   117     2 1
  126   118    52 1
  127   119    52 1
  128   120    52 1
  129   121    51 1
  130   122    50 1
  131   123    50 1
  132   124    49 1
  133   125    49 1
  134   126    48 1
  135   127    48 1
  136   128    43 1
  137   129    43 1
  138   130    43 1
  139   131    39 1
  140   132    32 1
  141   133    31 1
  142   134    61 1
  143   135    56 1
  144   136    24 1
  145   137    24 1
  146   139   138 1
  147   140   139 1
  148   141   140 1
  149   142   140 1
  150   143   142 1
  151   144   138 1
  152   144   143 1
  153   145   144 1
  154   146   145 1
  155   147   146 1
  156   148   147 1
  157   149   148 1
  158   150   149 1
  159   151   150 1
  160   152   151 1
  161   153   152 1
  162   154   138 1
  163   155   138 1
  164   156   143 1
  165   157   147 1
  166   158   151 1
  167   160   159 1
  168   161   160 1
  169   162   161 1
  170   163   161 1
  171   164   163 1
  172   165   159 1
  173   165   164 1
  174   166   165 1
  175   167   166 1
  176   168   167 1
  177   169   168 1
  178   170   169 1
  179   171   170 1
  180   172   171 1
  181   173   172 1
  182   174   153 1
  183   174   173 1
  184   175   159 1
  185   176   159 1
  186   177   164 1
  187   178   168 1
  188   179   172 1
  189   180   179 1
  190   181   179 1
  191   182   179 1
  192   183   178 1
  193   184   178 1
  194   185   178 1
  195   186   177 1
  196   187   177 1
  197   188   177 1
  198   189   176 1
  199   190   176 1
  200   191   176 1
  201   192   175 1
  202   193   175 1
  203   194   175 1
  204   195   160 1
  205   196   160 1
  206   197   158 1
  207   198   158 1
  208   199   158 1
  209   200   157 1
  210   201   157 1
  211   202   157 1
  212   203   156 1
  213   204   156 1
  214   205   156 1
  215   206   155 1
  216   207   155 1
  217   208   155 1
  218   209   154 1
  219   210   154 1
  220   211   154 1
  221   212   141 1
  222   213   146 1
  223   214   145 1
  224   215   142 1
  225   216   142 1
  226   217   174 1
  227   218   173 1
  228   219   171 1
  229   220   170 1
  230   221   169 1
  231   222   140 1
  232   223   167 1
  233   224   166 1
  234   225   165 1
  235   226   163 1
  236   227   161 1
  237   228   139 1
  238   229   139 1
  239   230   153 1
  240   231   152 1
  241   232   150 1
  242   233   149 1
  243   234   148 1
  244   235   162 1
  245   65    153 1
  246   65    174 1
@<TRIPOS>SUBSTRUCTURE
      1 CLA               1 ****               0 ****  **** 
      2 LUT             138 ****               0 ****  **** 
