@<TRIPOS>MOLECULE
Cpptraj generated mol2 file.
  235   246     2     0     0
SMALL
USER_CHARGES


@<TRIPOS>ATOM
      1 CAA        79.3685   57.5837   34.7952 a2         1 CLA     -0.055900
      2 CAB        79.5664   62.1252   43.5495 c8         1 CLA     -0.148500
      3 CAC        72.9509   57.5710   43.6857 a2         1 CLA     -0.012600
      4 CAD        75.1325   55.2773   36.0809 ck         1 CLA      0.398800
      5 NA         78.3139   58.4022   38.1861 ns         1 CLA     -0.225500
      6 CBA        80.6079   57.4412   33.9779 a2         1 CLA     -0.135000
      7 CBB        80.5602   62.9822   43.8506 c0         1 CLA     -0.395200
      8 CBC        73.3274   56.0472   43.8441 a3         1 CLA     -0.037700
      9 CBD        76.6885   55.7638   35.8447 a1         1 CLA     -0.053900
     10 NB         78.3116   60.1137   40.5986 nm         1 CLA     -0.295700
     11 OBD        74.5646   54.5824   35.2858 o2         1 CLA     -0.494600
     12 CGA        81.0774   56.0263   33.7468 c4         1 CLA      0.827000
     13 CGD        77.5312   54.5021   35.8447 c4         1 CLA      0.655300
     14 ND         75.5246   57.4994   38.8879 nm         1 CLA     -0.291600
     15 CED        77.9979   52.3479   36.9355 a3         1 CLA      0.005400
     16 CHA        76.9685   56.8354   36.9029 cs         1 CLA     -0.123800
     17 CHB        80.1858   59.7364   39.0593 aa         1 CLA     -0.291900
     18 CHC        77.1271   60.3618   42.7500 aa         1 CLA     -0.090400
     19 CHD        73.8011   57.3945   40.5942 aa         1 CLA     -0.052000
     20 CMA        81.8919   57.6649   37.5857 a3         1 CLA     -0.230700
     21 CMB        81.6803   61.8062   41.0065 a3         1 CLA     -0.180800
     22 CMC        75.0378   59.6389   44.9893 a3         1 CLA     -0.134000
     23 CMD        72.4314   55.5082   38.2542 a3         1 CLA     -0.141100
     24 C1         81.9827   54.2214   35.0172 a2         1 CLA      0.023000
     25 C1A        78.1766   57.5728   37.0872 ac         1 CLA     -0.015100
     26 C1B        79.5781   60.3464   40.1748 cr         1 CLA      0.054700
     27 C1C        75.9245   59.6779   42.4717 cn         1 CLA     -0.005600
     28 C1D        74.3265   57.0062   39.3222 ap         1 CLA     -0.047300
     29 O1A        81.0299   55.3587   32.7045 o2         1 CLA     -0.610800
     30 O1D        78.3377   54.2155   34.9543 o2         1 CLA     -0.558200
     31 C2         82.7227   53.9797   36.3438 c8         1 CLA     -0.325100
     32 C2A        79.4807   57.2881   36.3756 a1         1 CLA      0.098600
     33 C2B        80.2089   61.3540   41.0936 cb         1 CLA      0.088500
     34 C2C        74.9861   59.2619   43.5017 cb         1 CLA      0.053700
     35 C2D        73.7759   56.1713   38.2982 cb         1 CLA      0.058900
     36 O2A        81.6784   55.6290   34.9088 o1         1 CLA     -0.437200
     37 O2D        77.2309   53.6039   36.8261 o1         1 CLA     -0.357600
     38 C3         84.0265   53.6613   36.5189 c5         1 CLA      0.031200
     39 C3A        80.4659   58.1782   37.0916 a1         1 CLA      0.166800
     40 C3B        79.3696   61.4321   42.2762 cb         1 CLA      0.035000
     41 C3C        74.0408   58.3829   42.9283 cb         1 CLA     -0.089900
     42 C3D        74.7672   55.9687   37.3302 cb         1 CLA     -0.035900
     43 C4         84.4623   52.1968   36.6804 a3         1 CLA     -0.053300
     44 C4A        79.6352   58.8699   38.1519 ac         1 CLA      0.001800
     45 C4B        78.2088   60.5928   41.8971 cn         1 CLA     -0.020900
     46 C4C        74.4559   58.2652   41.5368 cr         1 CLA     -0.044400
     47 C4D        75.8429   56.7716   37.7530 c6         1 CLA     -0.046000
     48 C5         85.1985   54.6736   36.7394 a2         1 CLA     -0.070400
     49 C6         85.2415   55.0507   38.2304 a2         1 CLA      0.043900
     50 C7         86.2697   56.1805   38.3456 a2         1 CLA     -0.150000
     51 C8         86.3290   56.6850   39.8997 a1         1 CLA      0.064200
     52 C9         85.1199   57.6328   40.0992 a3         1 CLA     -0.259300
     53 C10        87.6945   57.4152   40.1747 a2         1 CLA     -0.071900
     54 C11        87.9745   57.9511   41.6523 a2         1 CLA      0.014500
     55 C12        87.8237   56.8350   42.7048 a2         1 CLA     -0.112100
     56 C13        88.5240   57.3417   44.0478 a1         1 CLA      0.089200
     57 C14        88.7704   56.1636   44.9101 a3         1 CLA     -0.239100
     58 C15        87.6631   58.4982   44.7466 a2         1 CLA     -0.102200
     59 C16        88.2819   59.2895   45.8166 a2         1 CLA      0.023900
     60 C17        87.3951   60.4295   46.3975 a2         1 CLA     -0.105700
     61 C18        86.0782   59.9983   47.1399 a1         1 CLA      0.206800
     62 C19        86.2069   58.7417   48.1198 a3         1 CLA     -0.280100
     63 C20        85.3317   61.2086   47.7508 a3         1 CLA     -0.280100
     64 NC         75.6093   59.1095   41.2876 nx         1 CLA     -0.309200
     65 MG         76.8654   58.8738   39.6904 mg         1 CLA      0.895000
     66 HMD3       72.3252   54.9593   39.1361 dc         1 CLA      0.064300
     67 HMD2       71.7625   56.3821   38.2363 dc         1 CLA      0.064300
     68 HMD1       72.3450   54.8340   37.3302 dc         1 CLA      0.064300
     69 HMC3       74.0235   59.5453   45.4366 dc         1 CLA      0.052100
     70 HMC2       75.6123   58.9365   45.5690 dc         1 CLA      0.052100
     71 HMC1       75.4537   60.5925   45.1261 dc         1 CLA      0.052100
     72 HMB3       82.1982   61.5196   41.9039 dc         1 CLA      0.063600
     73 HMB2       82.2035   61.4085   40.1560 dc         1 CLA      0.063600
     74 HMB1       81.8342   62.8810   40.9358 dc         1 CLA      0.063600
     75 HMA3       82.5729   58.5667   37.5910 dc         1 CLA      0.058300
     76 HMA2       81.8008   57.2384   38.5366 dc         1 CLA      0.058300
     77 HMA1       82.2124   56.9888   36.8449 dc         1 CLA      0.058300
     78 HED3       78.0207   51.9103   35.9738 dc         1 CLA      0.079300
     79 HED2       78.9808   52.5190   37.3696 dc         1 CLA      0.079300
     80 HED1       77.6301   51.6039   37.7000 dc         1 CLA      0.079300
     81 HBC3       74.1916   55.9560   44.4565 dc         1 CLA      0.016300
     82 HBC2       72.4519   55.5915   44.3015 dc         1 CLA      0.016300
     83 HBC1       73.4961   55.4913   42.8762 dc         1 CLA      0.016300
     84 HBB2       80.6062   63.4709   44.8336 da         1 CLA      0.183000
     85 HBB1       81.3545   63.2455   43.1057 da         1 CLA      0.183000
     86 HBA2       80.3534   57.7656   32.9698 dc         1 CLA      0.029400
     87 HBA1       81.5063   57.9943   34.2754 dc         1 CLA      0.029400
     88 HAC2       72.8210   58.0294   44.6722 dc         1 CLA      0.029300
     89 HAC1       72.0187   57.6761   43.1585 dc         1 CLA      0.029300
     90 HAA2       78.6800   56.8504   34.3969 dc         1 CLA      0.028700
     91 HAA1       79.0001   58.6183   34.7189 dc         1 CLA      0.028700
     92 H203       85.0518   61.8891   47.0198 dc         1 CLA      0.065600
     93 H202       84.4180   60.8465   48.2818 dc         1 CLA      0.065600
     94 H201       85.8869   61.7075   48.5398 dc         1 CLA      0.065600
     95 H193       86.5694   57.8593   47.5800 dc         1 CLA      0.065600
     96 H192       86.9963   58.8921   48.9432 dc         1 CLA      0.065600
     97 H191       85.2508   58.4645   48.5476 dc         1 CLA      0.065600
     98 H172       87.9265   61.0720   47.1098 dc         1 CLA      0.027600
     99 H171       87.2246   61.0302   45.5213 dc         1 CLA      0.027600
    100 H162       88.6429   58.7269   46.6292 dc         1 CLA      0.002900
    101 H161       89.2592   59.7356   45.4229 dc         1 CLA      0.002900
    102 H152       87.3343   59.1711   43.9789 dc         1 CLA      0.029100
    103 H151       86.6636   58.1022   45.1416 dc         1 CLA      0.029100
    104 H143       89.1510   56.2881   45.9234 dc         1 CLA      0.063600
    105 H142       87.8108   55.6074   44.9955 dc         1 CLA      0.063600
    106 H141       89.4283   55.4353   44.4025 dc         1 CLA      0.063600
    107 H122       86.7760   56.5210   42.7812 dc         1 CLA      0.032500
    108 H121       88.3813   55.9628   42.3374 dc         1 CLA      0.032500
    109 H112       89.0805   58.2593   41.7565 dc         1 CLA      0.006600
    110 H111       87.4137   58.8985   41.9287 dc         1 CLA      0.006600
    111 H102       88.3673   56.5873   39.7861 dc         1 CLA      0.024100
    112 H101       87.7777   58.3256   39.5314 dc         1 CLA      0.024100
    113 HHD        72.8988   56.9188   40.9225 da         1 CLA      0.174300
    114 HHC        77.3265   60.6245   43.8083 da         1 CLA      0.136800
    115 HHB        81.1578   60.0991   38.8011 da         1 CLA      0.138300
    116 HBD        76.7746   56.1657   34.8066 dc         1 CLA      0.107700
    117 HAB        78.7980   61.8827   44.3277 da         1 CLA      0.155200
    118 H93        85.3052   58.3764   39.2676 dc         1 CLA      0.069500
    119 H92        84.1251   57.0865   40.0461 dc         1 CLA      0.069500
    120 H91        85.1839   58.1753   41.0619 dc         1 CLA      0.069500
    121 H8         86.3709   55.7774   40.5934 dc         1 CLA      0.029300
    122 H72        87.1992   55.8212   37.9918 dc         1 CLA      0.044400
    123 H71        85.9709   56.9289   37.6896 dc         1 CLA      0.044400
    124 H62        84.2479   55.4061   38.5739 dc         1 CLA      0.015600
    125 H61        85.5007   54.1941   38.7865 dc         1 CLA      0.015600
    126 H52        86.1349   54.4014   36.3845 dc         1 CLA      0.033200
    127 H51        84.9242   55.5582   36.1809 dc         1 CLA      0.033200
    128 H43        85.2534   52.0299   35.9595 dc         1 CLA      0.037000
    129 H42        84.7980   51.9596   37.6941 dc         1 CLA      0.037000
    130 H41        83.5458   51.6488   36.5082 dc         1 CLA      0.037000
    131 H3A        80.7060   58.9957   36.3647 dc         1 CLA      0.041100
    132 H2A        79.7763   56.2237   36.5596 dc         1 CLA      0.083100
    133 H2         82.0311   53.9786   37.1919 da         1 CLA      0.180900
    134 H18        85.3892   59.6382   46.3757 dc         1 CLA     -0.003900
    135 H13        89.4827   57.7280   43.8435 dc         1 CLA      0.019700
    136 H12        80.9924   53.7963   34.9491 dc         1 CLA      0.120400
    137 H11        82.7703   53.9193   34.2732 dc         1 CLA      0.120400
    138 C1         70.1240   61.4332   50.2886 Z1         2 LUT      0.509236
    139 C2         69.6925   62.2656   51.4799 Z2         2 LUT     -0.434695
    140 C3         68.2169   62.5701   51.4344 Z3         2 LUT      0.437453
    141 O3         67.8038   63.2735   52.6512 S1         2 LUT     -0.547129
    142 C4         67.9652   63.4394   50.2306 Z4         2 LUT     -0.468603
    143 C5         68.6536   63.0283   48.8710 Z5         2 LUT      0.279246
    144 C6         69.5784   62.0726   48.9034 Z6         2 LUT     -0.305473
    145 C7         70.4539   61.8302   47.7012 Z7         2 LUT      0.069402
    146 C8         70.9131   62.5887   46.7224 Z8         2 LUT     -0.191631
    147 C9         71.5730   62.1150   45.5200 Z9         2 LUT      0.196698
    148 C10        72.4712   62.9569   44.8531 Y1         2 LUT     -0.208611
    149 C11        73.2437   62.8021   43.6068 Y2         2 LUT      0.030784
    150 C12        74.3796   63.3929   43.2431 Y3         2 LUT     -0.220316
    151 C13        75.2520   63.4310   42.0432 Y4         2 LUT      0.215937
    152 C14        76.4767   64.0265   42.1133 Y5         2 LUT     -0.185793
    153 C15        77.5562   64.1589   41.1468 Y6         2 LUT     -0.057835
    154 C16        69.4467   60.0239   50.5561 Y7         2 LUT     -0.405615
    155 C17        71.6786   61.2380   50.4331 Y7         2 LUT     -0.405615
    156 C18        68.1519   63.7484   47.6119 Y9         2 LUT     -0.369639
    157 C19        71.2217   60.7645   44.9996 W1         2 LUT     -0.333362
    158 C20        74.7679   62.7197   40.7930 W2         2 LUT     -0.323439
    159 C21        88.7754   64.8964   35.3753 Z1         2 LUT      0.406104
    160 C22        89.3827   63.8859   34.3408 Z2         2 LUT     -0.404965
    161 C23        89.5948   64.4453   32.8916 Z3         2 LUT      0.391255
    162 O23        90.0219   63.4146   32.0316 S1         2 LUT     -0.528210
    163 C24        88.4508   65.3409   32.4853 W6         2 LUT     -0.258361
    164 C25        87.4841   65.7765   33.2743 Z5         2 LUT      0.133546
    165 C26        87.3821   65.3904   34.7707 W8         2 LUT     -0.147008
    166 C27        86.6838   66.3781   35.7072 Z7         2 LUT      0.023843
    167 C28        85.5785   66.0598   36.4463 Z8         2 LUT     -0.216987
    168 C29        85.0488   66.7152   37.6734 Z9         2 LUT      0.206524
    169 C30        83.9129   66.1511   38.1279 Y1         2 LUT     -0.215556
    170 C31        83.1412   66.2522   39.3791 Y2         2 LUT      0.025142
    171 C32        81.9766   65.6161   39.6728 Y3         2 LUT     -0.212209
    172 C33        81.0291   65.6271   40.6907 Y4         2 LUT      0.240937
    173 C34        79.9195   64.8089   40.6090 Y5         2 LUT     -0.218862
    174 C35        78.8122   64.6626   41.4815 Y6         2 LUT     -0.023547
    175 C36        89.8513   66.0122   35.7379 Y7         2 LUT     -0.393485
    176 C37        88.7107   63.9632   36.6594 Y7         2 LUT     -0.393485
    177 C38        86.4335   66.6077   32.5894 Y9         2 LUT     -0.387526
    178 C39        85.7774   67.8851   38.4261 W1         2 LUT     -0.322618
    179 C40        81.1474   66.6690   41.7748 W2         2 LUT     -0.358472
    180 H403       80.6648   66.4180   42.6800 R7         2 LUT      0.097720
    181 H402       82.1917   66.8490   42.1093 R7         2 LUT      0.097720
    182 H401       80.7969   67.6643   41.4914 R7         2 LUT      0.097720
    183 H393       86.8205   67.6178   38.8065 R4         2 LUT      0.082505
    184 H392       85.8880   68.7241   37.7693 R4         2 LUT      0.082505
    185 H391       85.2805   68.1766   39.3535 R4         2 LUT      0.082505
    186 H383       85.5114   66.1141   32.3901 R1         2 LUT      0.104030
    187 H382       86.2222   67.3683   33.2344 R1         2 LUT      0.104030
    188 H381       86.8265   67.0944   31.7176 R1         2 LUT      0.104030
    189 H373       89.6291   63.5143   36.9503 T4         2 LUT      0.089537
    190 H372       88.3010   64.4295   37.5255 T4         2 LUT      0.089537
    191 H371       88.0052   63.1085   36.5169 T4         2 LUT      0.089537
    192 H363       89.4045   66.6569   36.5363 T4         2 LUT      0.089537
    193 H362       90.7214   65.6210   36.2112 T4         2 LUT      0.089537
    194 H361       90.1870   66.6526   34.8916 T4         2 LUT      0.089537
    195 H222       90.3209   63.5154   34.7289 U2         2 LUT      0.127376
    196 H221       88.6661   63.0028   34.2308 U2         2 LUT      0.127376
    197 H203       75.4660   62.6043   39.9261 R7         2 LUT      0.087068
    198 H202       74.5011   61.7270   41.0335 R7         2 LUT      0.087068
    199 H201       73.8453   63.1539   40.3882 R7         2 LUT      0.087068
    200 H193       71.6266   60.6914   43.9856 R4         2 LUT      0.089716
    201 H192       71.7749   60.0652   45.6028 R4         2 LUT      0.089716
    202 H191       70.1296   60.5720   45.0389 R4         2 LUT      0.089716
    203 H183       68.3125   63.1414   46.6964 R1         2 LUT      0.094572
    204 H182       67.0402   63.7850   47.7786 R1         2 LUT      0.094572
    205 H181       68.4846   64.7964   47.5907 R1         2 LUT      0.094572
    206 H173       72.2173   62.1550   50.3535 T4         2 LUT      0.093752
    207 H172       71.9251   60.9403   51.4247 T4         2 LUT      0.093752
    208 H171       72.0024   60.6187   49.6038 T4         2 LUT      0.093752
    209 H163       69.9023   59.3459   49.8401 T4         2 LUT      0.093752
    210 H162       69.5976   59.5213   51.5683 T4         2 LUT      0.093752
    211 H161       68.3647   60.0481   50.4250 T4         2 LUT      0.093752
    212 HO3        67.6414   62.6063   53.3210 Q1         2 LUT      0.300121
    213 H8         70.7939   63.6346   46.6224 U7         2 LUT      0.080784
    214 H7         70.6602   60.7315   47.5577 U6         2 LUT      0.042190
    215 H42        66.8835   63.5875   50.1848 U5         2 LUT      0.145166
    216 H41        68.2782   64.4411   50.5341 U5         2 LUT      0.145166
    217 H35        78.9240   64.9448   42.5099 T3         2 LUT      0.077919
    218 H34        79.8792   64.2071   39.6730 T2         2 LUT      0.073626
    219 H32        81.8431   64.8153   38.9735 T1         2 LUT      0.092510
    220 H31        83.4905   66.9188   40.1310 U9         2 LUT      0.070048
    221 H30        83.4653   65.3457   37.4620 U8         2 LUT      0.085442
    222 H3         67.5500   61.6295   51.2968 U3         2 LUT     -0.031596
    223 H28        85.0893   65.1794   36.0774 U7         2 LUT      0.084728
    224 H27        87.1520   67.2506   36.1157 U6         2 LUT      0.087291
    225 H26        86.7917   64.4407   34.7621 Q6         2 LUT      0.075325
    226 H24        88.5428   65.7171   31.4396 Q5         2 LUT      0.094482
    227 H23        90.3670   65.2585   32.8928 U3         2 LUT     -0.024869
    228 H22        69.9217   61.7598   52.3832 U2         2 LUT      0.127376
    229 H21        70.2089   63.1351   51.4114 U2         2 LUT      0.127376
    230 H15        77.3285   63.9367   40.1277 T3         2 LUT      0.093200
    231 H14        76.7202   64.4410   43.0810 T2         2 LUT      0.068865
    232 H12        74.7973   64.0304   44.0181 T1         2 LUT      0.095507
    233 H11        72.8658   62.1031   42.8641 U9         2 LUT      0.068930
    234 H10        72.7110   63.8565   45.3591 U8         2 LUT      0.083911
    235 H1         90.5193   63.8823   31.3132 Q1         2 LUT      0.297311
@<TRIPOS>BOND
    1     6     1 1
    2     7     2 1
    3     8     3 1
    4     9     4 1
    5    11     4 1
    6    12     6 1
    7    13     9 1
    8    16     9 1
    9    25     5 1
   10    25    16 1
   11    26    10 1
   12    26    17 1
   13    27    18 1
   14    28    14 1
   15    28    19 1
   16    29    12 1
   17    30    13 1
   18    31    24 1
   19    32     1 1
   20    32    25 1
   21    33    21 1
   22    33    26 1
   23    34    22 1
   24    34    27 1
   25    35    23 1
   26    35    28 1
   27    36    12 1
   28    36    24 1
   29    37    13 1
   30    37    15 1
   31    38    31 1
   32    39    20 1
   33    39    32 1
   34    40     2 1
   35    40    33 1
   36    41     3 1
   37    41    34 1
   38    42     4 1
   39    42    35 1
   40    43    38 1
   41    44     5 1
   42    44    17 1
   43    44    39 1
   44    45    10 1
   45    45    18 1
   46    45    40 1
   47    46    19 1
   48    46    41 1
   49    47    14 1
   50    47    16 1
   51    47    42 1
   52    48    38 1
   53    49    48 1
   54    50    49 1
   55    51    50 1
   56    52    51 1
   57    53    51 1
   58    54    53 1
   59    55    54 1
   60    56    55 1
   61    57    56 1
   62    58    56 1
   63    59    58 1
   64    60    59 1
   65    61    60 1
   66    62    61 1
   67    63    61 1
   68    64    27 1
   69    64    46 1
   70    65     5 1
   71    65    10 1
   72    65    64 1
   73    65    14 1
   74    66    23 1
   75    67    23 1
   76    68    23 1
   77    69    22 1
   78    70    22 1
   79    71    22 1
   80    72    21 1
   81    73    21 1
   82    74    21 1
   83    75    20 1
   84    76    20 1
   85    77    20 1
   86    78    15 1
   87    79    15 1
   88    80    15 1
   89    81     8 1
   90    82     8 1
   91    83     8 1
   92    84     7 1
   93    85     7 1
   94    86     6 1
   95    87     6 1
   96    88     3 1
   97    89     3 1
   98    90     1 1
   99    91     1 1
  100    92    63 1
  101    93    63 1
  102    94    63 1
  103    95    62 1
  104    96    62 1
  105    97    62 1
  106    98    60 1
  107    99    60 1
  108   100    59 1
  109   101    59 1
  110   102    58 1
  111   103    58 1
  112   104    57 1
  113   105    57 1
  114   106    57 1
  115   107    55 1
  116   108    55 1
  117   109    54 1
  118   110    54 1
  119   111    53 1
  120   112    53 1
  121   113    19 1
  122   114    18 1
  123   115    17 1
  124   116     9 1
  125   117     2 1
  126   118    52 1
  127   119    52 1
  128   120    52 1
  129   121    51 1
  130   122    50 1
  131   123    50 1
  132   124    49 1
  133   125    49 1
  134   126    48 1
  135   127    48 1
  136   128    43 1
  137   129    43 1
  138   130    43 1
  139   131    39 1
  140   132    32 1
  141   133    31 1
  142   134    61 1
  143   135    56 1
  144   136    24 1
  145   137    24 1
  146   139   138 1
  147   140   139 1
  148   141   140 1
  149   142   140 1
  150   143   142 1
  151   144   138 1
  152   144   143 1
  153   145   144 1
  154   146   145 1
  155   147   146 1
  156   148   147 1
  157   149   148 1
  158   150   149 1
  159   151   150 1
  160   152   151 1
  161   153   152 1
  162   154   138 1
  163   155   138 1
  164   156   143 1
  165   157   147 1
  166   158   151 1
  167   160   159 1
  168   161   160 1
  169   162   161 1
  170   163   161 1
  171   164   163 1
  172   165   159 1
  173   165   164 1
  174   166   165 1
  175   167   166 1
  176   168   167 1
  177   169   168 1
  178   170   169 1
  179   171   170 1
  180   172   171 1
  181   173   172 1
  182   174   153 1
  183   174   173 1
  184   175   159 1
  185   176   159 1
  186   177   164 1
  187   178   168 1
  188   179   172 1
  189   180   179 1
  190   181   179 1
  191   182   179 1
  192   183   178 1
  193   184   178 1
  194   185   178 1
  195   186   177 1
  196   187   177 1
  197   188   177 1
  198   189   176 1
  199   190   176 1
  200   191   176 1
  201   192   175 1
  202   193   175 1
  203   194   175 1
  204   195   160 1
  205   196   160 1
  206   197   158 1
  207   198   158 1
  208   199   158 1
  209   200   157 1
  210   201   157 1
  211   202   157 1
  212   203   156 1
  213   204   156 1
  214   205   156 1
  215   206   155 1
  216   207   155 1
  217   208   155 1
  218   209   154 1
  219   210   154 1
  220   211   154 1
  221   212   141 1
  222   213   146 1
  223   214   145 1
  224   215   142 1
  225   216   142 1
  226   217   174 1
  227   218   173 1
  228   219   171 1
  229   220   170 1
  230   221   169 1
  231   222   140 1
  232   223   167 1
  233   224   166 1
  234   225   165 1
  235   226   163 1
  236   227   161 1
  237   228   139 1
  238   229   139 1
  239   230   153 1
  240   231   152 1
  241   232   150 1
  242   233   149 1
  243   234   148 1
  244   235   162 1
  245   65    153 1
  246   65    174 1
@<TRIPOS>SUBSTRUCTURE
      1 CLA               1 ****               0 ****  **** 
      2 LUT             138 ****               0 ****  **** 
