@<TRIPOS>MOLECULE
Cpptraj generated mol2 file.
  235   246     2     0     0
SMALL
USER_CHARGES


@<TRIPOS>ATOM
      1 CAA        78.2766   57.2160   35.1189 a2         1 CLA     -0.055900
      2 CAB        78.3372   61.0302   44.0241 c8         1 CLA     -0.148500
      3 CAC        71.5277   56.4932   43.6607 a2         1 CLA     -0.012600
      4 CAD        74.1026   54.5421   36.3511 ck         1 CLA      0.398800
      5 NA         77.3135   57.6207   38.5435 ns         1 CLA     -0.225500
      6 CBA        79.5359   57.1834   34.1762 a2         1 CLA     -0.135000
      7 CBB        79.5005   61.1656   44.6614 c0         1 CLA     -0.395200
      8 CBC        71.7972   55.0505   43.8405 a3         1 CLA     -0.037700
      9 CBD        75.6313   54.9934   36.1012 a1         1 CLA     -0.053900
     10 NB         77.0782   59.0378   41.0783 nm         1 CLA     -0.295700
     11 OBD        73.4513   53.7705   35.6549 o2         1 CLA     -0.494600
     12 CGA        80.1129   55.7456   34.0376 c4         1 CLA      0.827000
     13 CGD        76.5067   53.7392   35.9852 c4         1 CLA      0.655300
     14 ND         74.6244   56.5215   39.1823 nm         1 CLA     -0.291600
     15 CED        76.9281   51.4884   36.6481 a3         1 CLA      0.005400
     16 CHA        76.0330   55.9351   37.2259 cs         1 CLA     -0.123800
     17 CHB        78.9495   59.1449   39.4352 aa         1 CLA     -0.291900
     18 CHC        75.7624   59.3729   43.0665 aa         1 CLA     -0.090400
     19 CHD        72.6459   56.4456   40.6910 aa         1 CLA     -0.052000
     20 CMA        80.7523   56.9349   37.8457 a3         1 CLA     -0.230700
     21 CMB        80.3299   61.1124   41.4325 a3         1 CLA     -0.180800
     22 CMC        73.4651   58.7305   45.1898 a3         1 CLA     -0.134000
     23 CMD        71.4400   54.5740   38.3269 a3         1 CLA     -0.141100
     24 C1         81.1440   53.8873   35.1223 a2         1 CLA      0.023000
     25 C1A        77.1845   56.7507   37.4476 ac         1 CLA     -0.015100
     26 C1B        78.3280   59.5263   40.6682 cr         1 CLA      0.054700
     27 C1C        74.6730   58.5300   42.8798 cn         1 CLA     -0.005600
     28 C1D        73.3155   56.0893   39.4970 ap         1 CLA     -0.047300
     29 O1A        80.1944   55.1343   32.9667 o2         1 CLA     -0.610800
     30 O1D        77.4869   53.7105   35.2330 o2         1 CLA     -0.558200
     31 C2         81.2950   53.4505   36.5980 c8         1 CLA     -0.325100
     32 C2A        78.4231   56.7685   36.5773 a1         1 CLA      0.098600
     33 C2B        78.9816   60.3572   41.6670 cb         1 CLA      0.088500
     34 C2C        73.5502   58.2489   43.7617 cb         1 CLA      0.053700
     35 C2D        72.7033   55.2739   38.4480 cb         1 CLA      0.058900
     36 O2A        80.4859   55.1975   35.2282 o1         1 CLA     -0.437200
     37 O2D        76.1790   52.7216   36.8859 o1         1 CLA     -0.357600
     38 C3         82.3403   52.9319   37.2398 c5         1 CLA      0.031200
     39 C3A        79.4311   57.6080   37.3871 a1         1 CLA      0.166800
     40 C3B        78.0666   60.3389   42.7113 cb         1 CLA      0.035000
     41 C3C        72.6902   57.2605   43.1401 cb         1 CLA     -0.089900
     42 C3D        73.7933   55.1749   37.5788 cb         1 CLA     -0.035900
     43 C4         82.4362   51.4451   37.4318 a3         1 CLA     -0.053300
     44 C4A        78.5481   58.1674   38.5800 ac         1 CLA      0.001800
     45 C4B        76.8939   59.5830   42.3143 cn         1 CLA     -0.020900
     46 C4C        73.2149   57.1825   41.7692 cr         1 CLA     -0.044400
     47 C4D        74.8984   55.9890   38.0383 c6         1 CLA     -0.046000
     48 C5         83.3281   53.9103   37.8811 a2         1 CLA     -0.070400
     49 C6         83.0583   54.2124   39.4158 a2         1 CLA      0.043900
     50 C7         84.2323   55.0780   40.0099 a2         1 CLA     -0.150000
     51 C8         84.4910   56.5842   39.4797 a1         1 CLA      0.064200
     52 C9         85.5742   56.5689   38.3281 a3         1 CLA     -0.259300
     53 C10        84.9553   57.5888   40.6079 a2         1 CLA     -0.071900
     54 C11        83.8601   57.8787   41.5268 a2         1 CLA      0.014500
     55 C12        84.1214   58.9366   42.6598 a2         1 CLA     -0.112100
     56 C13        84.9705   58.5280   43.9015 a1         1 CLA      0.089200
     57 C14        84.5425   57.2322   44.6155 a3         1 CLA     -0.239100
     58 C15        85.1055   59.7345   44.8471 a2         1 CLA     -0.102200
     59 C16        83.8716   60.2356   45.5966 a2         1 CLA      0.023900
     60 C17        84.2804   61.3645   46.7193 a2         1 CLA     -0.105700
     61 C18        83.0415   62.0879   47.3320 a1         1 CLA      0.206800
     62 C19        82.2239   61.2505   48.2591 a3         1 CLA     -0.280100
     63 C20        83.4867   63.3811   48.0778 a3         1 CLA     -0.280100
     64 NC         74.4218   57.8878   41.6820 nx         1 CLA     -0.309200
     65 MG         75.7996   57.8561   40.0740 mg         1 CLA      0.895000
     66 HMD3       71.5536   53.6788   38.9795 dc         1 CLA      0.064300
     67 HMD2       70.6223   55.2908   38.5956 dc         1 CLA      0.064300
     68 HMD1       71.3464   54.3153   37.3226 dc         1 CLA      0.064300
     69 HMC3       73.9543   58.0068   45.8881 dc         1 CLA      0.052100
     70 HMC2       74.0803   59.5588   45.1997 dc         1 CLA      0.052100
     71 HMC1       72.5440   59.1198   45.5955 dc         1 CLA      0.052100
     72 HMB3       81.0924   60.4177   41.9171 dc         1 CLA      0.063600
     73 HMB2       80.4232   61.3245   40.3794 dc         1 CLA      0.063600
     74 HMB1       80.3958   62.0024   42.0298 dc         1 CLA      0.063600
     75 HMA3       81.3147   57.5642   38.5749 dc         1 CLA      0.058300
     76 HMA2       80.6084   55.8887   38.2054 dc         1 CLA      0.058300
     77 HMA1       81.4419   56.9895   37.0148 dc         1 CLA      0.058300
     78 HED3       76.5446   51.1691   35.6868 dc         1 CLA      0.079300
     79 HED2       78.0201   51.6227   36.8099 dc         1 CLA      0.079300
     80 HED1       76.6726   50.5983   37.2337 dc         1 CLA      0.079300
     81 HBC3       70.8935   54.7225   44.3621 dc         1 CLA      0.016300
     82 HBC2       71.7641   54.4965   42.9342 dc         1 CLA      0.016300
     83 HBC1       72.6312   54.8018   44.4613 dc         1 CLA      0.016300
     84 HBB2       79.5528   61.8191   45.6003 da         1 CLA      0.183000
     85 HBB1       80.4584   60.9195   44.2271 da         1 CLA      0.183000
     86 HBA2       79.2034   57.5429   33.1339 dc         1 CLA      0.029400
     87 HBA1       80.1355   57.8361   34.7258 dc         1 CLA      0.029400
     88 HAC2       71.0578   56.8988   44.5399 dc         1 CLA      0.029300
     89 HAC1       70.7833   56.5605   42.8917 dc         1 CLA      0.029300
     90 HAA2       77.4445   56.6516   34.7289 dc         1 CLA      0.028700
     91 HAA1       77.8493   58.2297   35.0316 dc         1 CLA      0.028700
     92 H203       84.0927   63.1053   48.9322 dc         1 CLA      0.065600
     93 H202       83.9440   64.1957   47.4519 dc         1 CLA      0.065600
     94 H201       82.6304   63.8144   48.4845 dc         1 CLA      0.065600
     95 H193       82.0981   60.1779   48.0111 dc         1 CLA      0.065600
     96 H192       82.8655   61.1198   49.1253 dc         1 CLA      0.065600
     97 H191       81.3234   61.7734   48.7036 dc         1 CLA      0.065600
     98 H172       84.9935   61.0092   47.4388 dc         1 CLA      0.027600
     99 H171       84.8445   62.1287   46.1840 dc         1 CLA      0.027600
    100 H162       83.2612   60.7510   44.8563 dc         1 CLA      0.002900
    101 H161       83.4037   59.3628   46.0371 dc         1 CLA      0.002900
    102 H152       85.7346   59.4614   45.6647 dc         1 CLA      0.029100
    103 H151       85.5750   60.4785   44.1926 dc         1 CLA      0.029100
    104 H143       85.3239   56.8519   45.2497 dc         1 CLA      0.063600
    105 H142       83.6539   57.4264   45.2561 dc         1 CLA      0.063600
    106 H141       84.2361   56.4863   43.9095 dc         1 CLA      0.063600
    107 H122       84.5602   59.8377   42.1768 dc         1 CLA      0.032500
    108 H121       83.1525   59.3429   43.0110 dc         1 CLA      0.032500
    109 H112       83.1243   58.2267   40.8987 dc         1 CLA      0.006600
    110 H111       83.5383   56.8950   41.9546 dc         1 CLA      0.006600
    111 H102       85.8436   57.2519   41.1375 dc         1 CLA      0.024100
    112 H101       85.1791   58.5390   40.1101 dc         1 CLA      0.024100
    113 HHD        71.6083   56.0417   40.6564 da         1 CLA      0.174300
    114 HHC        75.7345   59.9684   43.9796 da         1 CLA      0.136800
    115 HHB        80.0041   59.4058   39.2558 da         1 CLA      0.138300
    116 HBD        75.7653   55.6537   35.2282 dc         1 CLA      0.107700
    117 HAB        77.5031   61.3718   44.6438 da         1 CLA      0.155200
    118 H93        85.7387   57.5653   37.9045 dc         1 CLA      0.069500
    119 H92        86.5207   56.2612   38.7172 dc         1 CLA      0.069500
    120 H91        85.3707   55.7406   37.5804 dc         1 CLA      0.069500
    121 H8         83.6618   57.0178   38.8475 dc         1 CLA      0.029300
    122 H72        83.8208   55.1967   41.0227 dc         1 CLA      0.044400
    123 H71        85.1227   54.4534   39.9718 dc         1 CLA      0.044400
    124 H62        82.1171   54.7084   39.4990 dc         1 CLA      0.015600
    125 H61        83.0066   53.2282   39.9312 dc         1 CLA      0.015600
    126 H52        84.4034   53.6322   37.6109 dc         1 CLA      0.033200
    127 H51        83.0863   54.8688   37.4422 dc         1 CLA      0.033200
    128 H43        81.6701   50.8290   36.8800 dc         1 CLA      0.037000
    129 H42        83.3346   50.9973   37.0383 dc         1 CLA      0.037000
    130 H41        82.3942   51.2338   38.4739 dc         1 CLA      0.037000
    131 H3A        79.8256   58.4094   36.8645 dc         1 CLA      0.041100
    132 H2A        78.7174   55.7202   36.5872 dc         1 CLA      0.083100
    133 H2         80.4803   53.6546   37.3169 da         1 CLA      0.180900
    134 H18        82.2868   62.4121   46.6049 dc         1 CLA     -0.003900
    135 H13        86.0124   58.2576   43.6134 dc         1 CLA      0.019700
    136 H12        80.5413   53.2132   34.5423 dc         1 CLA      0.120400
    137 H11        82.1139   53.9352   34.6302 dc         1 CLA      0.120400
    138 C1         68.3941   60.3458   50.4728 Z1         2 LUT      0.509236
    139 C2         67.1199   60.0949   51.3025 Z2         2 LUT     -0.434695
    140 C3         66.1954   61.3332   51.5988 Z3         2 LUT      0.437453
    141 O3         66.3047   61.7541   52.9222 S1         2 LUT     -0.547129
    142 C4         66.6146   62.5411   50.7902 Z4         2 LUT     -0.468603
    143 C5         67.1161   62.2903   49.4583 Z5         2 LUT      0.279246
    144 C6         68.0506   61.3255   49.2973 Z6         2 LUT     -0.305473
    145 C7         68.3276   60.8633   47.9103 Z7         2 LUT      0.069402
    146 C8         69.5043   61.1143   47.3352 Z8         2 LUT     -0.191631
    147 C9         69.9717   60.7455   46.0360 Z9         2 LUT      0.196698
    148 C10        71.0119   61.5242   45.4902 Y1         2 LUT     -0.208611
    149 C11        71.8575   61.4487   44.3310 Y2         2 LUT      0.030784
    150 C12        72.8497   62.3626   44.0795 Y3         2 LUT     -0.220316
    151 C13        73.6665   62.3826   42.9115 Y4         2 LUT      0.215937
    152 C14        74.8950   63.0257   42.9204 Y5         2 LUT     -0.185793
    153 C15        75.8612   63.1938   41.8246 Y6         2 LUT     -0.057835
    154 C16        69.0112   58.9803   49.9836 Y7         2 LUT     -0.405615
    155 C17        69.4114   60.9241   51.4596 Y7         2 LUT     -0.405615
    156 C18        66.4631   63.1467   48.4345 Y9         2 LUT     -0.369639
    157 C19        69.3130   59.6139   45.3461 W1         2 LUT     -0.333362
    158 C20        73.1247   61.6539   41.6331 W2         2 LUT     -0.323439
    159 C21        87.3513   64.3981   35.1899 Z1         2 LUT      0.406104
    160 C22        88.0547   63.9018   33.9105 Z2         2 LUT     -0.404965
    161 C23        88.0840   64.9770   32.8716 Z3         2 LUT      0.391255
    162 O23        88.8040   64.3237   31.7768 S1         2 LUT     -0.528210
    163 C24        86.7616   65.6473   32.6468 W6         2 LUT     -0.258361
    164 C25        85.7392   65.6769   33.5005 Z5         2 LUT      0.133546
    165 C26        85.9060   64.9108   34.8672 W8         2 LUT     -0.147008
    166 C27        85.0213   65.4940   36.0023 Z7         2 LUT      0.023843
    167 C28        83.9611   64.9985   36.5871 Z8         2 LUT     -0.216987
    168 C29        83.2110   65.4128   37.7862 Z9         2 LUT      0.206524
    169 C30        82.0954   64.7523   38.2130 Y1         2 LUT     -0.215556
    170 C31        81.3190   65.0266   39.3651 Y2         2 LUT      0.025142
    171 C32        80.1761   64.3229   39.6869 Y3         2 LUT     -0.212209
    172 C33        79.3652   64.4639   40.8648 Y4         2 LUT      0.240937
    173 C34        78.1006   63.8479   40.9650 Y5         2 LUT     -0.218862
    174 C35        77.1262   63.7125   42.0635 Y6         2 LUT     -0.023547
    175 C36        88.2284   65.3618   35.9539 Y7         2 LUT     -0.393485
    176 C37        87.1843   63.2109   36.0315 Y7         2 LUT     -0.393485
    177 C38        84.3389   66.2445   33.1743 Y9         2 LUT     -0.387526
    178 C39        83.8878   66.5444   38.5168 W1         2 LUT     -0.322618
    179 C40        79.8246   65.4582   41.9607 W2         2 LUT     -0.358472
    180 H403       80.3131   66.2981   41.4515 R7         2 LUT      0.097720
    181 H402       78.8983   65.8964   42.3637 R7         2 LUT      0.097720
    182 H401       80.4741   65.1236   42.7832 R7         2 LUT      0.097720
    183 H393       84.8251   66.2206   39.0342 R4         2 LUT      0.082505
    184 H392       84.0772   67.3973   37.9134 R4         2 LUT      0.082505
    185 H391       83.3173   66.9725   39.2834 R4         2 LUT      0.082505
    186 H383       83.5404   65.4848   32.9801 R1         2 LUT      0.104030
    187 H382       84.1091   66.9688   34.0125 R1         2 LUT      0.104030
    188 H381       84.4308   66.9730   32.3115 R1         2 LUT      0.104030
    189 H373       88.1614   62.8035   36.4186 T4         2 LUT      0.089537
    190 H372       86.6876   63.2953   37.0383 T4         2 LUT      0.089537
    191 H371       86.7275   62.3635   35.5015 T4         2 LUT      0.089537
    192 H363       88.0412   65.5254   36.9565 T4         2 LUT      0.089537
    193 H362       89.2263   64.9177   35.7720 T4         2 LUT      0.089537
    194 H361       88.3047   66.3590   35.4771 T4         2 LUT      0.089537
    195 H222       89.1344   63.5700   33.9737 U2         2 LUT      0.127376
    196 H221       87.5991   62.9276   33.5233 U2         2 LUT      0.127376
    197 H203       72.1599   62.0383   41.3912 R7         2 LUT      0.087068
    198 H202       73.7305   61.9485   40.7833 R7         2 LUT      0.087068
    199 H201       73.0813   60.5899   41.7037 R7         2 LUT      0.087068
    200 H193       68.2638   59.6733   45.3487 R4         2 LUT      0.089716
    201 H192       69.6205   59.3965   44.3912 R4         2 LUT      0.089716
    202 H191       69.4844   58.7545   45.9934 R4         2 LUT      0.089716
    203 H183       66.9937   63.0881   47.4170 R1         2 LUT      0.094572
    204 H182       65.3961   62.8648   48.4116 R1         2 LUT      0.094572
    205 H181       66.5188   64.2419   48.6424 R1         2 LUT      0.094572
    206 H173       70.3826   61.2940   51.0396 T4         2 LUT      0.093752
    207 H172       68.9518   61.7289   52.0652 T4         2 LUT      0.093752
    208 H171       69.5837   60.2381   52.2245 T4         2 LUT      0.093752
    209 H163       69.1557   58.3360   50.7630 T4         2 LUT      0.093752
    210 H162       68.3591   58.3020   49.4850 T4         2 LUT      0.093752
    211 H161       69.9488   59.1509   49.5190 T4         2 LUT      0.093752
    212 HO3        65.9129   61.0947   53.4986 Q1         2 LUT      0.300121
    213 H8         70.2751   61.5992   47.9402 U7         2 LUT      0.080784
    214 H7         67.4955   60.5389   47.3314 U6         2 LUT      0.042190
    215 H42        65.8760   63.3786   50.7879 U5         2 LUT      0.145166
    216 H41        67.3358   63.0524   51.4231 U5         2 LUT      0.145166
    217 H35        77.3323   64.0736   43.0544 T3         2 LUT      0.077919
    218 H34        77.8004   63.4045   40.0300 T2         2 LUT      0.073626
    219 H32        79.8147   63.6006   38.9580 T1         2 LUT      0.092510
    220 H31        81.7557   65.6508   40.1182 U9         2 LUT      0.070048
    221 H30        81.8094   63.9154   37.5678 U8         2 LUT      0.085442
    222 H3         65.1626   60.9168   51.4160 U3         2 LUT     -0.031596
    223 H28        83.5347   64.1508   36.0623 U7         2 LUT      0.084728
    224 H27        85.6563   66.2200   36.4859 U6         2 LUT      0.087291
    225 H26        85.3028   63.9689   34.5684 Q6         2 LUT      0.075325
    226 H24        86.5315   66.0636   31.6438 Q5         2 LUT      0.094482
    227 H23        88.8244   65.6971   33.2751 U3         2 LUT     -0.024869
    228 H22        66.4656   59.5604   50.6075 U2         2 LUT      0.127376
    229 H21        67.1951   59.3820   52.1195 U2         2 LUT      0.127376
    230 H15        75.6547   62.9149   40.7488 T3         2 LUT      0.093200
    231 H14        75.2245   63.3757   43.8992 T2         2 LUT      0.068865
    232 H12        73.0994   63.0220   44.9426 T1         2 LUT      0.095507
    233 H11        71.7023   60.6568   43.6128 U9         2 LUT      0.068930
    234 H10        71.2905   62.3716   46.1575 U8         2 LUT      0.083911
    235 H1         88.1603   63.8695   31.1301 Q1         2 LUT      0.297311
@<TRIPOS>BOND
    1     6     1 1
    2     7     2 1
    3     8     3 1
    4     9     4 1
    5    11     4 1
    6    12     6 1
    7    13     9 1
    8    16     9 1
    9    25     5 1
   10    25    16 1
   11    26    10 1
   12    26    17 1
   13    27    18 1
   14    28    14 1
   15    28    19 1
   16    29    12 1
   17    30    13 1
   18    31    24 1
   19    32     1 1
   20    32    25 1
   21    33    21 1
   22    33    26 1
   23    34    22 1
   24    34    27 1
   25    35    23 1
   26    35    28 1
   27    36    12 1
   28    36    24 1
   29    37    13 1
   30    37    15 1
   31    38    31 1
   32    39    20 1
   33    39    32 1
   34    40     2 1
   35    40    33 1
   36    41     3 1
   37    41    34 1
   38    42     4 1
   39    42    35 1
   40    43    38 1
   41    44     5 1
   42    44    17 1
   43    44    39 1
   44    45    10 1
   45    45    18 1
   46    45    40 1
   47    46    19 1
   48    46    41 1
   49    47    14 1
   50    47    16 1
   51    47    42 1
   52    48    38 1
   53    49    48 1
   54    50    49 1
   55    51    50 1
   56    52    51 1
   57    53    51 1
   58    54    53 1
   59    55    54 1
   60    56    55 1
   61    57    56 1
   62    58    56 1
   63    59    58 1
   64    60    59 1
   65    61    60 1
   66    62    61 1
   67    63    61 1
   68    64    27 1
   69    64    46 1
   70    65     5 1
   71    65    10 1
   72    65    64 1
   73    65    14 1
   74    66    23 1
   75    67    23 1
   76    68    23 1
   77    69    22 1
   78    70    22 1
   79    71    22 1
   80    72    21 1
   81    73    21 1
   82    74    21 1
   83    75    20 1
   84    76    20 1
   85    77    20 1
   86    78    15 1
   87    79    15 1
   88    80    15 1
   89    81     8 1
   90    82     8 1
   91    83     8 1
   92    84     7 1
   93    85     7 1
   94    86     6 1
   95    87     6 1
   96    88     3 1
   97    89     3 1
   98    90     1 1
   99    91     1 1
  100    92    63 1
  101    93    63 1
  102    94    63 1
  103    95    62 1
  104    96    62 1
  105    97    62 1
  106    98    60 1
  107    99    60 1
  108   100    59 1
  109   101    59 1
  110   102    58 1
  111   103    58 1
  112   104    57 1
  113   105    57 1
  114   106    57 1
  115   107    55 1
  116   108    55 1
  117   109    54 1
  118   110    54 1
  119   111    53 1
  120   112    53 1
  121   113    19 1
  122   114    18 1
  123   115    17 1
  124   116     9 1
  125   117     2 1
  126   118    52 1
  127   119    52 1
  128   120    52 1
  129   121    51 1
  130   122    50 1
  131   123    50 1
  132   124    49 1
  133   125    49 1
  134   126    48 1
  135   127    48 1
  136   128    43 1
  137   129    43 1
  138   130    43 1
  139   131    39 1
  140   132    32 1
  141   133    31 1
  142   134    61 1
  143   135    56 1
  144   136    24 1
  145   137    24 1
  146   139   138 1
  147   140   139 1
  148   141   140 1
  149   142   140 1
  150   143   142 1
  151   144   138 1
  152   144   143 1
  153   145   144 1
  154   146   145 1
  155   147   146 1
  156   148   147 1
  157   149   148 1
  158   150   149 1
  159   151   150 1
  160   152   151 1
  161   153   152 1
  162   154   138 1
  163   155   138 1
  164   156   143 1
  165   157   147 1
  166   158   151 1
  167   160   159 1
  168   161   160 1
  169   162   161 1
  170   163   161 1
  171   164   163 1
  172   165   159 1
  173   165   164 1
  174   166   165 1
  175   167   166 1
  176   168   167 1
  177   169   168 1
  178   170   169 1
  179   171   170 1
  180   172   171 1
  181   173   172 1
  182   174   153 1
  183   174   173 1
  184   175   159 1
  185   176   159 1
  186   177   164 1
  187   178   168 1
  188   179   172 1
  189   180   179 1
  190   181   179 1
  191   182   179 1
  192   183   178 1
  193   184   178 1
  194   185   178 1
  195   186   177 1
  196   187   177 1
  197   188   177 1
  198   189   176 1
  199   190   176 1
  200   191   176 1
  201   192   175 1
  202   193   175 1
  203   194   175 1
  204   195   160 1
  205   196   160 1
  206   197   158 1
  207   198   158 1
  208   199   158 1
  209   200   157 1
  210   201   157 1
  211   202   157 1
  212   203   156 1
  213   204   156 1
  214   205   156 1
  215   206   155 1
  216   207   155 1
  217   208   155 1
  218   209   154 1
  219   210   154 1
  220   211   154 1
  221   212   141 1
  222   213   146 1
  223   214   145 1
  224   215   142 1
  225   216   142 1
  226   217   174 1
  227   218   173 1
  228   219   171 1
  229   220   170 1
  230   221   169 1
  231   222   140 1
  232   223   167 1
  233   224   166 1
  234   225   165 1
  235   226   163 1
  236   227   161 1
  237   228   139 1
  238   229   139 1
  239   230   153 1
  240   231   152 1
  241   232   150 1
  242   233   149 1
  243   234   148 1
  244   235   162 1
  245   65    153 1
  246   65    174 1
@<TRIPOS>SUBSTRUCTURE
      1 CLA               1 ****               0 ****  **** 
      2 LUT             138 ****               0 ****  **** 
