@<TRIPOS>MOLECULE
Cpptraj generated mol2 file.
  235   246     2     0     0
SMALL
USER_CHARGES


@<TRIPOS>ATOM
      1 CAA        80.2913   57.8605   34.7550 a2         1 CLA     -0.055900
      2 CAB        80.2682   62.6598   43.2528 c8         1 CLA     -0.148500
      3 CAC        73.3788   58.4180   43.1527 a2         1 CLA     -0.012600
      4 CAD        75.9897   55.6646   36.0603 ck         1 CLA      0.398800
      5 NA         79.4205   58.5409   38.0550 ns         1 CLA     -0.225500
      6 CBA        81.4074   57.4942   33.7303 a2         1 CLA     -0.135000
      7 CBB        81.1267   62.4782   44.3002 c0         1 CLA     -0.395200
      8 CBC        73.5935   56.8505   43.2371 a3         1 CLA     -0.037700
      9 CBD        77.4824   56.0121   35.7399 a1         1 CLA     -0.053900
     10 NB         79.2669   60.3327   40.4181 nm         1 CLA     -0.295700
     11 OBD        75.2597   54.9903   35.3536 o2         1 CLA     -0.494600
     12 CGA        81.6653   56.0558   33.3669 c4         1 CLA      0.827000
     13 CGD        78.3365   54.8168   35.6085 c4         1 CLA      0.655300
     14 ND         76.5575   57.8607   38.7375 nm         1 CLA     -0.291600
     15 CED        79.1742   52.6850   36.5648 a3         1 CLA      0.005400
     16 CHA        77.9348   57.0424   36.8789 cs         1 CLA     -0.123800
     17 CHB        81.1976   59.9638   38.9467 aa         1 CLA     -0.291900
     18 CHC        77.8859   60.7861   42.6137 aa         1 CLA     -0.090400
     19 CHD        74.6849   57.9584   40.3287 aa         1 CLA     -0.052000
     20 CMA        82.6097   57.4391   37.6631 a3         1 CLA     -0.230700
     21 CMB        82.4596   62.2437   40.9051 a3         1 CLA     -0.180800
     22 CMC        75.5019   60.2753   44.6581 a3         1 CLA     -0.134000
     23 CMD        73.3428   55.9408   38.3267 a3         1 CLA     -0.141100
     24 C1         82.6649   53.9991   33.9732 a2         1 CLA      0.023000
     25 C1A        79.2057   57.6516   37.0616 ac         1 CLA     -0.015100
     26 C1B        80.5857   60.5533   40.0340 cr         1 CLA      0.054700
     27 C1C        76.7029   60.0394   42.3996 cn         1 CLA     -0.005600
     28 C1D        75.2599   57.4446   39.1694 ap         1 CLA     -0.047300
     29 O1A        81.3916   55.6066   32.2745 o2         1 CLA     -0.610800
     30 O1D        79.0755   54.5883   34.6885 o2         1 CLA     -0.558200
     31 C2         83.3154   53.4049   35.1488 c8         1 CLA     -0.325100
     32 C2A        80.5080   57.4884   36.2548 a1         1 CLA      0.098600
     33 C2B        81.1132   61.4944   41.0004 cb         1 CLA      0.088500
     34 C2C        75.6015   59.7755   43.2792 cb         1 CLA      0.053700
     35 C2D        74.7035   56.5832   38.1684 cb         1 CLA      0.058900
     36 O2A        82.3201   55.3531   34.3968 o1         1 CLA     -0.437200
     37 O2D        78.2753   53.8791   36.6731 o1         1 CLA     -0.357600
     38 C3         84.4243   52.5457   35.2861 c5         1 CLA      0.031200
     39 C3A        81.5154   58.3523   37.0612 a1         1 CLA      0.166800
     40 C3B        80.1381   61.7425   42.0462 cb         1 CLA      0.035000
     41 C3C        74.6381   59.0598   42.5865 cb         1 CLA     -0.089900
     42 C3D        75.7115   56.4178   37.2547 cb         1 CLA     -0.035900
     43 C4         84.3235   51.0372   35.3644 a3         1 CLA     -0.053300
     44 C4A        80.6409   59.0554   38.0301 ac         1 CLA      0.001800
     45 C4B        78.9776   60.9388   41.7025 cn         1 CLA     -0.020900
     46 C4C        75.2286   58.7921   41.3016 cr         1 CLA     -0.044400
     47 C4D        76.7984   57.1920   37.6262 c6         1 CLA     -0.046000
     48 C5         85.8306   53.1246   35.4414 a2         1 CLA     -0.070400
     49 C6         85.8624   54.1151   36.6527 a2         1 CLA      0.043900
     50 C7         87.1595   54.9429   36.6529 a2         1 CLA     -0.150000
     51 C8         87.3450   55.7152   37.9074 a1         1 CLA      0.064200
     52 C9         86.6568   57.0693   37.9492 a3         1 CLA     -0.259300
     53 C10        88.8136   55.9621   38.1994 a2         1 CLA     -0.071900
     54 C11        89.1623   56.5681   39.6006 a2         1 CLA      0.014500
     55 C12        89.5079   55.6794   40.7851 a2         1 CLA     -0.112100
     56 C13        89.8327   56.2744   42.1634 a1         1 CLA      0.089200
     57 C14        90.3471   55.1502   43.0537 a3         1 CLA     -0.239100
     58 C15        88.6704   57.1108   42.7158 a2         1 CLA     -0.102200
     59 C16        88.9204   57.7716   44.0971 a2         1 CLA      0.023900
     60 C17        87.8636   58.8544   44.3875 a2         1 CLA     -0.105700
     61 C18        86.4198   58.3888   44.8369 a1         1 CLA      0.206800
     62 C19        86.2377   57.4553   46.0184 a3         1 CLA     -0.280100
     63 C20        85.5678   59.6444   45.0128 a3         1 CLA     -0.280100
     64 NC         76.4661   59.4346   41.1742 nx         1 CLA     -0.309200
     65 MG         77.8659   59.2423   39.4588 mg         1 CLA      0.895000
     66 HMD3       73.4996   54.9472   37.8875 dc         1 CLA      0.064300
     67 HMD2       73.2032   55.6684   39.3676 dc         1 CLA      0.064300
     68 HMD1       72.6056   56.5328   37.8124 dc         1 CLA      0.064300
     69 HMC3       74.9814   61.2261   44.7256 dc         1 CLA      0.052100
     70 HMC2       74.9246   59.5865   45.2761 dc         1 CLA      0.052100
     71 HMC1       76.5130   60.2511   44.9844 dc         1 CLA      0.052100
     72 HMB3       82.3794   63.3380   40.8711 dc         1 CLA      0.063600
     73 HMB2       82.9106   61.8911   41.8146 dc         1 CLA      0.063600
     74 HMB1       82.9136   61.8865   40.0231 dc         1 CLA      0.063600
     75 HMA3       83.1392   56.9169   36.8217 dc         1 CLA      0.058300
     76 HMA2       83.1377   58.1228   38.3627 dc         1 CLA      0.058300
     77 HMA1       82.0513   56.7120   38.2654 dc         1 CLA      0.058300
     78 HED3       78.6023   52.0154   35.9568 dc         1 CLA      0.079300
     79 HED2       80.1904   52.9482   36.2204 dc         1 CLA      0.079300
     80 HED1       79.2921   52.2610   37.5627 dc         1 CLA      0.079300
     81 HBC3       73.5154   56.3995   42.2387 dc         1 CLA      0.016300
     82 HBC2       74.6241   56.6406   43.6805 dc         1 CLA      0.016300
     83 HBC1       72.8987   56.3884   44.0617 dc         1 CLA      0.016300
     84 HBB2       81.1709   63.2273   45.1315 da         1 CLA      0.183000
     85 HBB1       81.7992   61.5794   44.4097 da         1 CLA      0.183000
     86 HBA2       81.2750   57.9413   32.8456 dc         1 CLA      0.029400
     87 HBA1       82.4167   57.9088   33.9421 dc         1 CLA      0.029400
     88 HAC2       73.1035   58.8781   44.0585 dc         1 CLA      0.029300
     89 HAC1       72.4621   58.5916   42.5476 dc         1 CLA      0.029300
     90 HAA2       79.3160   57.5735   34.3014 dc         1 CLA      0.028700
     91 HAA1       80.2457   58.8803   34.6561 dc         1 CLA      0.028700
     92 H203       85.5948   60.2940   44.1367 dc         1 CLA      0.065600
     93 H202       84.4714   59.5290   45.2041 dc         1 CLA      0.065600
     94 H201       85.9156   60.1248   45.8986 dc         1 CLA      0.065600
     95 H193       86.5568   56.4149   45.8473 dc         1 CLA      0.065600
     96 H192       86.5405   57.8634   46.9911 dc         1 CLA      0.065600
     97 H191       85.1006   57.4925   46.0821 dc         1 CLA      0.065600
     98 H172       88.3303   59.4983   45.1182 dc         1 CLA      0.027600
     99 H171       87.8208   59.4727   43.4685 dc         1 CLA      0.027600
    100 H162       88.8814   57.0361   44.8737 dc         1 CLA      0.002900
    101 H161       89.8567   58.2667   44.0320 dc         1 CLA      0.002900
    102 H152       88.4914   57.9344   42.0245 dc         1 CLA      0.029100
    103 H151       87.7582   56.4821   42.6517 dc         1 CLA      0.029100
    104 H143       91.0889   54.5957   42.5112 dc         1 CLA      0.063600
    105 H142       90.8699   55.5910   43.8954 dc         1 CLA      0.063600
    106 H141       89.6046   54.4508   43.3970 dc         1 CLA      0.063600
    107 H122       88.7060   54.9691   41.0106 dc         1 CLA      0.032500
    108 H121       90.4169   55.0657   40.4994 dc         1 CLA      0.032500
    109 H112       90.0721   57.2419   39.4236 dc         1 CLA      0.006600
    110 H111       88.3660   57.2482   39.9879 dc         1 CLA      0.006600
    111 H102       89.3978   55.0884   38.0825 dc         1 CLA      0.024100
    112 H101       89.1899   56.7208   37.5590 dc         1 CLA      0.024100
    113 HHD        73.6460   57.6509   40.5822 da         1 CLA      0.174300
    114 HHC        77.9624   61.2691   43.5603 da         1 CLA      0.136800
    115 HHB        82.2847   60.2578   38.8562 da         1 CLA      0.138300
    116 HBD        77.4372   56.5725   34.7601 dc         1 CLA      0.107700
    117 HAB        79.6382   63.5185   43.3232 da         1 CLA      0.155200
    118 H93        85.7196   56.9556   37.4289 dc         1 CLA      0.069500
    119 H92        86.3303   57.3295   38.9030 dc         1 CLA      0.069500
    120 H91        87.2047   57.9746   37.6336 dc         1 CLA      0.069500
    121 H8         86.9430   55.1878   38.7695 dc         1 CLA      0.029300
    122 H72        88.0539   54.3326   36.2837 dc         1 CLA      0.044400
    123 H71        87.1033   55.7287   35.9290 dc         1 CLA      0.044400
    124 H62        84.9937   54.7376   36.5618 dc         1 CLA      0.015600
    125 H61        85.8532   53.6758   37.6100 dc         1 CLA      0.015600
    126 H52        86.6050   52.3757   35.5476 dc         1 CLA      0.033200
    127 H51        85.9407   53.7560   34.5453 dc         1 CLA      0.033200
    128 H43        84.7195   50.6827   36.2812 dc         1 CLA      0.037000
    129 H42        83.2836   50.8451   35.1296 dc         1 CLA      0.037000
    130 H41        84.9971   50.6523   34.5961 dc         1 CLA      0.037000
    131 H3A        82.0848   59.0750   36.4629 dc         1 CLA      0.041100
    132 H2A        80.8266   56.4344   36.1876 dc         1 CLA      0.083100
    133 H2         82.9077   53.7247   36.0969 da         1 CLA      0.180900
    134 H18        86.0051   57.9064   43.9830 dc         1 CLA     -0.003900
    135 H13        90.7754   56.8481   42.1142 dc         1 CLA      0.019700
    136 H12        81.7621   53.3876   33.6940 dc         1 CLA      0.120400
    137 H11        83.3477   53.9506   33.1022 dc         1 CLA      0.120400
    138 C1         70.3028   61.7039   49.9057 Z1         2 LUT      0.509236
    139 C2         68.9694   61.4489   50.7743 Z2         2 LUT     -0.434695
    140 C3         68.2223   62.6660   51.2307 Z3         2 LUT      0.437453
    141 O3         68.6221   63.0345   52.6007 S1         2 LUT     -0.547129
    142 C4         68.2707   63.8265   50.2454 Z4         2 LUT     -0.468603
    143 C5         68.9871   63.6251   48.8777 Z5         2 LUT      0.279246
    144 C6         69.9640   62.6968   48.7726 Z6         2 LUT     -0.305473
    145 C7         70.3890   62.2622   47.3890 Z7         2 LUT      0.069402
    146 C8         71.3083   62.9541   46.6413 Z8         2 LUT     -0.191631
    147 C9         71.7923   62.5987   45.3144 Z9         2 LUT      0.196698
    148 C10        72.9071   63.3536   44.8659 Y1         2 LUT     -0.208611
    149 C11        73.6710   63.1551   43.5765 Y2         2 LUT      0.030784
    150 C12        74.6916   63.9541   43.3175 Y3         2 LUT     -0.220316
    151 C13        75.6345   63.8645   42.1685 Y4         2 LUT      0.215937
    152 C14        76.8247   64.6157   42.2853 Y5         2 LUT     -0.185793
    153 C15        77.8922   64.5663   41.3551 Y6         2 LUT     -0.057835
    154 C16        70.9503   60.3714   49.5591 Y7         2 LUT     -0.405615
    155 C17        71.3345   62.3987   50.8289 Y7         2 LUT     -0.405615
    156 C18        68.3461   64.3338   47.7236 Y9         2 LUT     -0.369639
    157 C19        70.9541   61.5883   44.5896 W1         2 LUT     -0.333362
    158 C20        75.4281   62.9550   41.0126 W2         2 LUT     -0.323439
    159 C21        89.1146   65.5877   35.0584 Z1         2 LUT      0.406104
    160 C22        89.8466   64.9833   33.8772 Z2         2 LUT     -0.404965
    161 C23        90.1860   65.9562   32.7487 Z3         2 LUT      0.391255
    162 O23        90.9218   65.3474   31.6565 S1         2 LUT     -0.528210
    163 C24        88.9270   66.7409   32.4863 W6         2 LUT     -0.258361
    164 C25        87.7440   66.7093   33.2262 Z5         2 LUT      0.133546
    165 C26        87.7199   65.9635   34.6021 W8         2 LUT     -0.147008
    166 C27        86.9980   66.7198   35.6604 Z7         2 LUT      0.023843
    167 C28        86.0190   66.1700   36.3719 Z8         2 LUT     -0.216987
    168 C29        85.6587   66.4887   37.7105 Z9         2 LUT      0.206524
    169 C30        84.4742   65.9840   38.1431 Y1         2 LUT     -0.215556
    170 C31        83.6725   66.1232   39.3210 Y2         2 LUT      0.025142
    171 C32        82.3551   65.7235   39.4242 Y3         2 LUT     -0.212209
    172 C33        81.4433   65.8335   40.5720 Y4         2 LUT      0.240937
    173 C34        80.2813   65.1005   40.5004 Y5         2 LUT     -0.218862
    174 C35        79.0712   65.2555   41.3463 Y6         2 LUT     -0.023547
    175 C36        90.0303   66.7572   35.5604 Y7         2 LUT     -0.393485
    176 C37        89.0730   64.4283   36.1116 Y7         2 LUT     -0.393485
    177 C38        86.5423   67.4685   32.7412 Y9         2 LUT     -0.387526
    178 C39        86.4580   67.4175   38.5954 W1         2 LUT     -0.322618
    179 C40        81.7040   66.7448   41.7348 W2         2 LUT     -0.358472
    180 H403       81.0091   67.5947   41.7664 R7         2 LUT      0.097720
    181 H402       81.4932   66.2618   42.6763 R7         2 LUT      0.097720
    182 H401       82.7087   67.1242   41.8037 R7         2 LUT      0.097720
    183 H393       85.7779   68.2230   38.7551 R4         2 LUT      0.082505
    184 H392       86.7721   66.9594   39.5147 R4         2 LUT      0.082505
    185 H391       87.3020   67.8341   38.1114 R4         2 LUT      0.082505
    186 H383       86.3943   68.3214   33.3633 R1         2 LUT      0.104030
    187 H382       86.6269   67.5972   31.6940 R1         2 LUT      0.104030
    188 H381       85.6740   66.8013   32.8186 R1         2 LUT      0.104030
    189 H373       90.0642   64.0946   36.3032 T4         2 LUT      0.089537
    190 H372       88.8293   64.7462   37.1376 T4         2 LUT      0.089537
    191 H371       88.4464   63.6287   35.8056 T4         2 LUT      0.089537
    192 H363       89.9300   67.6725   34.9099 T4         2 LUT      0.089537
    193 H362       89.8933   66.9791   36.6111 T4         2 LUT      0.089537
    194 H361       91.0400   66.6456   35.3682 T4         2 LUT      0.089537
    195 H222       90.7185   64.4379   34.2446 U2         2 LUT      0.127376
    196 H221       89.2712   64.2064   33.4392 U2         2 LUT      0.127376
    197 H203       74.9468   63.3912   40.1975 R7         2 LUT      0.087068
    198 H202       76.3801   62.5813   40.6214 R7         2 LUT      0.087068
    199 H201       74.7155   62.1138   41.1210 R7         2 LUT      0.087068
    200 H193       69.8791   61.6690   44.7473 R4         2 LUT      0.089716
    201 H192       71.1302   61.6272   43.5408 R4         2 LUT      0.089716
    202 H191       71.2466   60.5520   44.7938 R4         2 LUT      0.089716
    203 H183       68.6631   65.4327   47.7548 R1         2 LUT      0.094572
    204 H182       68.6671   63.8861   46.7425 R1         2 LUT      0.094572
    205 H181       67.2674   64.4379   47.8426 R1         2 LUT      0.094572
    206 H173       71.0549   63.4288   50.9945 T4         2 LUT      0.093752
    207 H172       71.4570   61.8097   51.7415 T4         2 LUT      0.093752
    208 H171       72.3336   62.2639   50.4016 T4         2 LUT      0.093752
    209 H163       71.8814   60.5381   49.0789 T4         2 LUT      0.093752
    210 H162       71.1238   59.7562   50.5155 T4         2 LUT      0.093752
    211 H161       70.2868   59.8481   48.8138 T4         2 LUT      0.093752
    212 HO3        67.9679   63.6210   52.9754 Q1         2 LUT      0.300121
    213 H8         71.7561   63.8545   47.0019 U7         2 LUT      0.080784
    214 H7         69.9546   61.3421   47.0286 U6         2 LUT      0.042190
    215 H42        67.3032   64.2110   50.0794 U5         2 LUT      0.145166
    216 H41        68.7011   64.6963   50.6473 U5         2 LUT      0.145166
    217 H35        79.0824   66.0072   42.1455 T3         2 LUT      0.077919
    218 H34        80.0686   64.4961   39.6004 T2         2 LUT      0.073626
    219 H32        81.8817   65.1441   38.6376 T1         2 LUT      0.092510
    220 H31        84.0375   66.6246   40.2176 U9         2 LUT      0.070048
    221 H30        83.8554   65.3544   37.4224 U8         2 LUT      0.085442
    222 H3         67.1676   62.3319   51.3066 U3         2 LUT     -0.031596
    223 H28        85.4465   65.4405   35.8258 U7         2 LUT      0.084728
    224 H27        87.5643   67.4429   36.1810 U6         2 LUT      0.087291
    225 H26        87.1644   65.0068   34.3862 Q6         2 LUT      0.075325
    226 H24        89.0404   67.2842   31.5736 Q5         2 LUT      0.094482
    227 H23        90.7312   66.8404   33.1085 U3         2 LUT     -0.024869
    228 H22        68.3387   60.9527   50.0579 U2         2 LUT      0.127376
    229 H21        69.2958   60.8394   51.6964 U2         2 LUT      0.127376
    230 H15        77.9279   63.8007   40.6835 T3         2 LUT      0.093200
    231 H14        77.0343   65.2635   43.1353 T2         2 LUT      0.068865
    232 H12        74.9442   64.6996   44.0846 T1         2 LUT      0.095507
    233 H11        73.3277   62.2785   42.9713 U9         2 LUT      0.068930
    234 H10        73.3691   64.0068   45.5950 U8         2 LUT      0.083911
    235 H1         90.3280   64.8648   31.0035 Q1         2 LUT      0.297311
@<TRIPOS>BOND
    1     6     1 1
    2     7     2 1
    3     8     3 1
    4     9     4 1
    5    11     4 1
    6    12     6 1
    7    13     9 1
    8    16     9 1
    9    25     5 1
   10    25    16 1
   11    26    10 1
   12    26    17 1
   13    27    18 1
   14    28    14 1
   15    28    19 1
   16    29    12 1
   17    30    13 1
   18    31    24 1
   19    32     1 1
   20    32    25 1
   21    33    21 1
   22    33    26 1
   23    34    22 1
   24    34    27 1
   25    35    23 1
   26    35    28 1
   27    36    12 1
   28    36    24 1
   29    37    13 1
   30    37    15 1
   31    38    31 1
   32    39    20 1
   33    39    32 1
   34    40     2 1
   35    40    33 1
   36    41     3 1
   37    41    34 1
   38    42     4 1
   39    42    35 1
   40    43    38 1
   41    44     5 1
   42    44    17 1
   43    44    39 1
   44    45    10 1
   45    45    18 1
   46    45    40 1
   47    46    19 1
   48    46    41 1
   49    47    14 1
   50    47    16 1
   51    47    42 1
   52    48    38 1
   53    49    48 1
   54    50    49 1
   55    51    50 1
   56    52    51 1
   57    53    51 1
   58    54    53 1
   59    55    54 1
   60    56    55 1
   61    57    56 1
   62    58    56 1
   63    59    58 1
   64    60    59 1
   65    61    60 1
   66    62    61 1
   67    63    61 1
   68    64    27 1
   69    64    46 1
   70    65     5 1
   71    65    10 1
   72    65    64 1
   73    65    14 1
   74    66    23 1
   75    67    23 1
   76    68    23 1
   77    69    22 1
   78    70    22 1
   79    71    22 1
   80    72    21 1
   81    73    21 1
   82    74    21 1
   83    75    20 1
   84    76    20 1
   85    77    20 1
   86    78    15 1
   87    79    15 1
   88    80    15 1
   89    81     8 1
   90    82     8 1
   91    83     8 1
   92    84     7 1
   93    85     7 1
   94    86     6 1
   95    87     6 1
   96    88     3 1
   97    89     3 1
   98    90     1 1
   99    91     1 1
  100    92    63 1
  101    93    63 1
  102    94    63 1
  103    95    62 1
  104    96    62 1
  105    97    62 1
  106    98    60 1
  107    99    60 1
  108   100    59 1
  109   101    59 1
  110   102    58 1
  111   103    58 1
  112   104    57 1
  113   105    57 1
  114   106    57 1
  115   107    55 1
  116   108    55 1
  117   109    54 1
  118   110    54 1
  119   111    53 1
  120   112    53 1
  121   113    19 1
  122   114    18 1
  123   115    17 1
  124   116     9 1
  125   117     2 1
  126   118    52 1
  127   119    52 1
  128   120    52 1
  129   121    51 1
  130   122    50 1
  131   123    50 1
  132   124    49 1
  133   125    49 1
  134   126    48 1
  135   127    48 1
  136   128    43 1
  137   129    43 1
  138   130    43 1
  139   131    39 1
  140   132    32 1
  141   133    31 1
  142   134    61 1
  143   135    56 1
  144   136    24 1
  145   137    24 1
  146   139   138 1
  147   140   139 1
  148   141   140 1
  149   142   140 1
  150   143   142 1
  151   144   138 1
  152   144   143 1
  153   145   144 1
  154   146   145 1
  155   147   146 1
  156   148   147 1
  157   149   148 1
  158   150   149 1
  159   151   150 1
  160   152   151 1
  161   153   152 1
  162   154   138 1
  163   155   138 1
  164   156   143 1
  165   157   147 1
  166   158   151 1
  167   160   159 1
  168   161   160 1
  169   162   161 1
  170   163   161 1
  171   164   163 1
  172   165   159 1
  173   165   164 1
  174   166   165 1
  175   167   166 1
  176   168   167 1
  177   169   168 1
  178   170   169 1
  179   171   170 1
  180   172   171 1
  181   173   172 1
  182   174   153 1
  183   174   173 1
  184   175   159 1
  185   176   159 1
  186   177   164 1
  187   178   168 1
  188   179   172 1
  189   180   179 1
  190   181   179 1
  191   182   179 1
  192   183   178 1
  193   184   178 1
  194   185   178 1
  195   186   177 1
  196   187   177 1
  197   188   177 1
  198   189   176 1
  199   190   176 1
  200   191   176 1
  201   192   175 1
  202   193   175 1
  203   194   175 1
  204   195   160 1
  205   196   160 1
  206   197   158 1
  207   198   158 1
  208   199   158 1
  209   200   157 1
  210   201   157 1
  211   202   157 1
  212   203   156 1
  213   204   156 1
  214   205   156 1
  215   206   155 1
  216   207   155 1
  217   208   155 1
  218   209   154 1
  219   210   154 1
  220   211   154 1
  221   212   141 1
  222   213   146 1
  223   214   145 1
  224   215   142 1
  225   216   142 1
  226   217   174 1
  227   218   173 1
  228   219   171 1
  229   220   170 1
  230   221   169 1
  231   222   140 1
  232   223   167 1
  233   224   166 1
  234   225   165 1
  235   226   163 1
  236   227   161 1
  237   228   139 1
  238   229   139 1
  239   230   153 1
  240   231   152 1
  241   232   150 1
  242   233   149 1
  243   234   148 1
  244   235   162 1
  245   65    153 1
  246   65    174 1
@<TRIPOS>SUBSTRUCTURE
      1 CLA               1 ****               0 ****  **** 
      2 LUT             138 ****               0 ****  **** 
