@<TRIPOS>MOLECULE
Cpptraj generated mol2 file.
  235   246     2     0     0
SMALL
USER_CHARGES


@<TRIPOS>ATOM
      1 CAA        79.5071   59.3012   33.5932 a2         1 CLA     -0.055900
      2 CAB        79.4306   62.4238   42.8448 c8         1 CLA     -0.148500
      3 CAC        72.4591   58.4190   41.9642 a2         1 CLA     -0.012600
      4 CAD        75.1361   56.9381   34.3161 ck         1 CLA      0.398800
      5 NA         78.5664   59.0947   37.0330 ns         1 CLA     -0.225500
      6 CBA        80.7681   59.1569   32.6966 a2         1 CLA     -0.135000
      7 CBB        80.4106   62.0389   43.7128 c0         1 CLA     -0.395200
      8 CBC        72.2201   56.8713   41.9262 a3         1 CLA     -0.037700
      9 CBD        76.6634   57.2822   34.1686 a1         1 CLA     -0.053900
     10 NB         78.4310   60.3856   39.7848 nm         1 CLA     -0.295700
     11 OBD        74.4786   56.5192   33.3582 o2         1 CLA     -0.494600
     12 CGA        81.1465   57.7241   32.3116 c4         1 CLA      0.827000
     13 CGD        77.5421   56.0844   33.8909 c4         1 CLA      0.655300
     14 ND         75.6932   58.3380   37.5307 nm         1 CLA     -0.291600
     15 CED        77.8509   53.7252   33.9121 a3         1 CLA      0.005400
     16 CHA        77.1286   57.9988   35.4473 cs         1 CLA     -0.123800
     17 CHB        80.3512   60.2894   38.2683 aa         1 CLA     -0.291900
     18 CHC        76.9912   60.7362   41.7429 aa         1 CLA     -0.090400
     19 CHD        73.8136   58.1298   39.1058 aa         1 CLA     -0.052000
     20 CMA        81.8972   58.4756   36.5049 a3         1 CLA     -0.230700
     21 CMB        81.8518   61.8153   40.5952 a3         1 CLA     -0.180800
     22 CMC        74.6656   60.1504   43.5956 a3         1 CLA     -0.134000
     23 CMD        72.4399   56.6786   36.5385 a3         1 CLA     -0.141100
     24 C1         81.9133   55.6194   33.1614 a2         1 CLA      0.023000
     25 C1A        78.3647   58.5674   35.7619 ac         1 CLA     -0.015100
     26 C1B        79.7451   60.6440   39.4723 cr         1 CLA      0.054700
     27 C1C        75.8326   60.0278   41.3386 cn         1 CLA     -0.005600
     28 C1D        74.3834   57.9506   37.8300 ap         1 CLA     -0.047300
     29 O1A        80.9399   57.1755   31.2281 o2         1 CLA     -0.610800
     30 O1D        78.6169   56.1543   33.2792 o2         1 CLA     -0.558200
     31 C2         82.2857   54.9312   34.5626 c8         1 CLA     -0.325100
     32 C2A        79.6390   58.5371   34.9905 a1         1 CLA      0.098600
     33 C2B        80.3639   61.4378   40.5949 cb         1 CLA      0.088500
     34 C2C        74.7029   59.7585   42.1798 cb         1 CLA      0.053700
     35 C2D        73.8418   57.3081   36.6266 cb         1 CLA      0.058900
     36 O2A        81.7597   57.0632   33.4240 o1         1 CLA     -0.437200
     37 O2D        77.0455   54.8991   34.3601 o1         1 CLA     -0.357600
     38 C3         83.2443   53.9360   34.5630 c5         1 CLA      0.031200
     39 C3A        80.6197   59.2206   35.9468 a1         1 CLA      0.166800
     40 C3B        79.3170   61.6609   41.5441 cb         1 CLA      0.035000
     41 C3C        73.8086   58.8923   41.4710 cb         1 CLA     -0.089900
     42 C3D        74.8521   57.3569   35.6742 cb         1 CLA     -0.035900
     43 C4         82.9717   52.4898   34.2116 a3         1 CLA     -0.053300
     44 C4A        79.8360   59.5777   37.1547 ac         1 CLA      0.001800
     45 C4B        78.1885   60.8814   41.0083 cn         1 CLA     -0.020900
     46 C4C        74.3886   58.7976   40.1859 cr         1 CLA     -0.044400
     47 C4D        75.9775   58.0071   36.2232 c6         1 CLA     -0.046000
     48 C5         84.6451   54.2669   34.4819 a2         1 CLA     -0.070400
     49 C6         85.1988   55.6231   35.1045 a2         1 CLA      0.043900
     50 C7         85.0082   55.4719   36.6494 a2         1 CLA     -0.150000
     51 C8         85.0536   56.8407   37.3719 a1         1 CLA      0.064200
     52 C9         86.2330   57.8307   36.9299 a3         1 CLA     -0.259300
     53 C10        84.9752   56.6516   38.9048 a2         1 CLA     -0.071900
     54 C11        84.9794   57.8980   39.8048 a2         1 CLA      0.014500
     55 C12        84.7851   57.5425   41.2367 a2         1 CLA     -0.112100
     56 C13        84.6542   58.8180   42.1692 a1         1 CLA      0.089200
     57 C14        85.8058   59.8684   41.9355 a3         1 CLA     -0.239100
     58 C15        84.4608   58.4906   43.6086 a2         1 CLA     -0.102200
     59 C16        83.3073   57.4829   44.0199 a2         1 CLA      0.023900
     60 C17        83.3100   57.1520   45.5323 a2         1 CLA     -0.105700
     61 C18        84.4266   56.2897   46.1334 a1         1 CLA      0.206800
     62 C19        84.5313   56.5267   47.7059 a3         1 CLA     -0.280100
     63 C20        84.4009   54.7007   45.8483 a3         1 CLA     -0.280100
     64 NC         75.6262   59.3627   40.1165 nx         1 CLA     -0.309200
     65 MG         77.0582   59.3484   38.5954 mg         1 CLA      0.895000
     66 HMD3       72.0510   56.4557   37.4840 dc         1 CLA      0.064300
     67 HMD2       71.8281   57.4379   36.0430 dc         1 CLA      0.064300
     68 HMD1       72.5536   55.7789   35.9840 dc         1 CLA      0.064300
     69 HMC3       73.7458   59.8228   43.9953 dc         1 CLA      0.052100
     70 HMC2       75.3825   59.6944   44.2078 dc         1 CLA      0.052100
     71 HMC1       74.8348   61.2356   43.7037 dc         1 CLA      0.052100
     72 HMB3       82.4305   61.3962   39.6979 dc         1 CLA      0.063600
     73 HMB2       82.0461   62.8664   40.5923 dc         1 CLA      0.063600
     74 HMB1       82.3457   61.5234   41.5592 dc         1 CLA      0.063600
     75 HMA3       82.5358   58.0759   35.7195 dc         1 CLA      0.058300
     76 HMA2       82.5574   59.2167   36.9912 dc         1 CLA      0.058300
     77 HMA1       81.7587   57.6282   37.1628 dc         1 CLA      0.058300
     78 HED3       77.4496   52.8909   34.5523 dc         1 CLA      0.079300
     79 HED2       77.6623   53.5542   32.8340 dc         1 CLA      0.079300
     80 HED1       78.8633   53.8951   34.2628 dc         1 CLA      0.079300
     81 HBC3       72.8990   56.2622   42.5430 dc         1 CLA      0.016300
     82 HBC2       71.2076   56.6676   42.2692 dc         1 CLA      0.016300
     83 HBC1       72.3631   56.5858   40.8601 dc         1 CLA      0.016300
     84 HBB2       80.5449   62.6723   44.5839 da         1 CLA      0.183000
     85 HBB1       81.0886   61.1212   43.7734 da         1 CLA      0.183000
     86 HBA2       80.5422   59.7332   31.8128 dc         1 CLA      0.029400
     87 HBA1       81.6619   59.6848   33.1490 dc         1 CLA      0.029400
     88 HAC2       72.4238   58.5673   43.0244 dc         1 CLA      0.029300
     89 HAC1       71.6077   58.8970   41.4740 dc         1 CLA      0.029300
     90 HAA2       78.7069   58.8872   33.0600 dc         1 CLA      0.028700
     91 HAA1       79.3358   60.3044   33.7686 dc         1 CLA      0.028700
     92 H203       85.2373   54.1828   46.3359 dc         1 CLA      0.065600
     93 H202       83.5237   54.2711   46.1610 dc         1 CLA      0.065600
     94 H201       84.5438   54.5102   44.7880 dc         1 CLA      0.065600
     95 H193       85.2479   55.8917   48.2259 dc         1 CLA      0.065600
     96 H192       85.0373   57.5154   47.9823 dc         1 CLA      0.065600
     97 H191       83.5147   56.4019   48.1498 dc         1 CLA      0.065600
     98 H172       83.4084   58.0484   46.0742 dc         1 CLA      0.027600
     99 H171       82.3526   56.7183   45.8440 dc         1 CLA      0.027600
    100 H162       82.3483   57.9004   43.7204 dc         1 CLA      0.002900
    101 H161       83.4900   56.4251   43.5743 dc         1 CLA      0.002900
    102 H152       85.3537   57.9127   43.8966 dc         1 CLA      0.029100
    103 H151       84.3942   59.4863   44.0487 dc         1 CLA      0.029100
    104 H143       86.0914   60.0307   40.9083 dc         1 CLA      0.063600
    105 H142       85.5950   60.8390   42.4277 dc         1 CLA      0.063600
    106 H141       86.6579   59.4675   42.3191 dc         1 CLA      0.063600
    107 H122       83.9750   56.7897   41.3846 dc         1 CLA      0.032500
    108 H121       85.6809   57.0023   41.5415 dc         1 CLA      0.032500
    109 H112       86.0339   58.1732   39.7050 dc         1 CLA      0.006600
    110 H111       84.2813   58.6444   39.4414 dc         1 CLA      0.006600
    111 H102       83.9858   56.2371   39.1592 dc         1 CLA      0.024100
    112 H101       85.7623   55.9659   39.2586 dc         1 CLA      0.024100
    113 HHD        72.7758   57.6920   39.1265 da         1 CLA      0.174300
    114 HHC        76.8467   61.2846   42.6458 da         1 CLA      0.136800
    115 HHB        81.4289   60.4668   38.0536 da         1 CLA      0.138300
    116 HBD        76.8125   57.9555   33.2611 dc         1 CLA      0.107700
    117 HAB        78.8908   63.3959   42.9396 da         1 CLA      0.155200
    118 H93        85.9625   58.7773   37.4362 dc         1 CLA      0.069500
    119 H92        87.2397   57.5306   37.3180 dc         1 CLA      0.069500
    120 H91        86.2899   58.2011   35.9114 dc         1 CLA      0.069500
    121 H8         84.1048   57.3338   37.1021 dc         1 CLA      0.029300
    122 H72        83.9609   55.2076   36.8765 dc         1 CLA      0.044400
    123 H71        85.6689   54.6792   37.0907 dc         1 CLA      0.044400
    124 H62        86.2629   55.7459   34.8884 dc         1 CLA      0.015600
    125 H61        84.6821   56.4948   34.6680 dc         1 CLA      0.015600
    126 H52        85.1753   53.4584   34.8944 dc         1 CLA      0.033200
    127 H51        85.0007   54.3262   33.4488 dc         1 CLA      0.033200
    128 H43        83.4078   51.8507   34.9019 dc         1 CLA      0.037000
    129 H42        81.8951   52.2634   34.2795 dc         1 CLA      0.037000
    130 H41        83.2693   52.3344   33.1768 dc         1 CLA      0.037000
    131 H3A        80.9425   60.1633   35.4705 dc         1 CLA      0.041100
    132 H2A        79.8504   57.4785   34.9870 dc         1 CLA      0.083100
    133 H2         81.7399   55.1936   35.4799 da         1 CLA      0.180900
    134 H18        85.3516   56.6932   45.7923 dc         1 CLA     -0.003900
    135 H13        83.7063   59.3488   41.8270 dc         1 CLA      0.019700
    136 H12        80.9666   55.1909   32.8540 dc         1 CLA      0.120400
    137 H11        82.7594   55.4568   32.4531 dc         1 CLA      0.120400
    138 C1         69.1035   61.6418   49.3321 Z1         2 LUT      0.509236
    139 C2         68.7773   62.3164   50.7033 Z2         2 LUT     -0.434695
    140 C3         67.2854   62.8181   50.6916 Z3         2 LUT      0.437453
    141 O3         66.9801   63.4874   51.9069 S1         2 LUT     -0.547129
    142 C4         67.2051   63.8164   49.4924 Z4         2 LUT     -0.468603
    143 C5         67.6348   63.3126   48.1168 Z5         2 LUT      0.279246
    144 C6         68.6044   62.3258   48.0172 Z6         2 LUT     -0.305473
    145 C7         69.0052   61.7165   46.6650 Z7         2 LUT      0.069402
    146 C8         69.8684   62.4101   45.8664 Z8         2 LUT     -0.191631
    147 C9         70.3350   62.0734   44.4820 Z9         2 LUT      0.196698
    148 C10        71.3525   62.8717   43.9700 Y1         2 LUT     -0.208611
    149 C11        72.2423   62.6497   42.8427 Y2         2 LUT      0.030784
    150 C12        73.4055   63.3433   42.8101 Y3         2 LUT     -0.220316
    151 C13        74.4609   63.3488   41.7685 Y4         2 LUT      0.215937
    152 C14        75.6140   64.0295   41.9435 Y5         2 LUT     -0.185793
    153 C15        76.6395   64.1881   40.9597 Y6         2 LUT     -0.057835
    154 C16        68.5779   60.2128   49.2912 Y7         2 LUT     -0.405615
    155 C17        70.6150   61.4788   49.2923 Y7         2 LUT     -0.405615
    156 C18        66.8967   64.0465   46.9628 Y9         2 LUT     -0.369639
    157 C19        69.7750   60.8803   43.7066 W1         2 LUT     -0.333362
    158 C20        74.0554   62.8657   40.4073 W2         2 LUT     -0.323439
    159 C21        88.4200   65.6117   34.9333 Z1         2 LUT      0.406104
    160 C22        88.9500   65.2394   33.4690 Z2         2 LUT     -0.404965
    161 C23        88.8953   66.3536   32.4213 Z3         2 LUT      0.391255
    162 O23        89.6512   65.8301   31.4041 S1         2 LUT     -0.528210
    163 C24        87.5866   66.9814   32.3084 W6         2 LUT     -0.258361
    164 C25        86.6459   66.8760   33.2728 Z5         2 LUT      0.133546
    165 C26        86.9357   66.1015   34.6825 W8         2 LUT     -0.147008
    166 C27        86.1615   66.6299   35.9206 Z7         2 LUT      0.023843
    167 C28        84.9759   66.1863   36.3421 Z8         2 LUT     -0.216987
    168 C29        84.1461   66.5859   37.4914 Z9         2 LUT      0.206524
    169 C30        82.8894   66.0057   37.7055 Y1         2 LUT     -0.215556
    170 C31        82.0717   66.1640   38.8499 Y2         2 LUT      0.025142
    171 C32        80.9286   65.5203   39.1150 Y3         2 LUT     -0.212209
    172 C33        80.0610   65.5617   40.2963 Y4         2 LUT      0.240937
    173 C34        78.8763   64.8936   40.3335 Y5         2 LUT     -0.218862
    174 C35        77.7829   64.8540   41.2928 Y6         2 LUT     -0.023547
    175 C36        89.3597   66.7007   35.5490 Y7         2 LUT     -0.393485
    176 C37        88.5975   64.3671   35.8106 Y7         2 LUT     -0.393485
    177 C38        85.4095   67.6438   33.1974 Y9         2 LUT     -0.387526
    178 C39        84.6289   67.5417   38.5524 W1         2 LUT     -0.322618
    179 C40        80.4273   66.4764   41.4498 W2         2 LUT     -0.358472
    180 H403       80.1513   67.4914   41.3190 R7         2 LUT      0.097720
    181 H402       79.9938   66.2302   42.3839 R7         2 LUT      0.097720
    182 H401       81.5512   66.3237   41.6431 R7         2 LUT      0.097720
    183 H393       84.3557   67.2069   39.5434 R4         2 LUT      0.082505
    184 H392       85.7219   67.6719   38.6406 R4         2 LUT      0.082505
    185 H391       84.2200   68.5619   38.4562 R4         2 LUT      0.082505
    186 H383       84.7234   67.5586   34.0905 R1         2 LUT      0.104030
    187 H382       85.5775   68.7614   33.0244 R1         2 LUT      0.104030
    188 H381       84.7755   67.4613   32.4017 R1         2 LUT      0.104030
    189 H373       89.5864   63.9972   35.7726 T4         2 LUT      0.089537
    190 H372       88.3665   64.6762   36.8713 T4         2 LUT      0.089537
    191 H371       87.9371   63.5362   35.6192 T4         2 LUT      0.089537
    192 H363       89.0664   67.1687   36.4139 T4         2 LUT      0.089537
    193 H362       90.3656   66.2357   35.8109 T4         2 LUT      0.089537
    194 H361       89.4376   67.5305   34.7840 T4         2 LUT      0.089537
    195 H222       89.8900   64.7062   33.6356 U2         2 LUT      0.127376
    196 H221       88.4278   64.3854   33.0589 U2         2 LUT      0.127376
    197 H203       73.6139   61.8286   40.5634 R7         2 LUT      0.087068
    198 H202       73.2975   63.4979   39.9431 R7         2 LUT      0.087068
    199 H201       74.8886   62.6864   39.7074 R7         2 LUT      0.087068
    200 H193       69.1423   61.2225   42.9182 R4         2 LUT      0.089716
    201 H192       70.5939   60.2732   43.3002 R4         2 LUT      0.089716
    202 H191       69.1793   60.2331   44.3462 R4         2 LUT      0.089716
    203 H183       65.9009   64.2399   47.2475 R1         2 LUT      0.094572
    204 H182       67.3885   64.9664   46.5732 R1         2 LUT      0.094572
    205 H181       66.7087   63.3868   46.1104 R1         2 LUT      0.094572
    206 H173       71.0146   61.1897   50.2384 T4         2 LUT      0.093752
    207 H172       71.0016   60.7724   48.4919 T4         2 LUT      0.093752
    208 H171       71.1007   62.3912   48.9839 T4         2 LUT      0.093752
    209 H163       67.4819   60.2783   49.3765 T4         2 LUT      0.093752
    210 H162       68.7212   59.6731   48.2852 T4         2 LUT      0.093752
    211 H161       68.9442   59.5400   50.0443 T4         2 LUT      0.093752
    212 HO3        67.0505   62.8853   52.6382 Q1         2 LUT      0.300121
    213 H8         70.1378   63.3825   46.0736 U7         2 LUT      0.080784
    214 H7         68.7625   60.6622   46.3700 U6         2 LUT      0.042190
    215 H42        66.1847   64.2352   49.4740 U5         2 LUT      0.145166
    216 H41        67.8503   64.6839   49.6899 U5         2 LUT      0.145166
    217 H35        77.8082   65.3864   42.2388 T3         2 LUT      0.077919
    218 H34        78.7950   64.1468   39.5868 T2         2 LUT      0.073626
    219 H32        80.5195   64.9074   38.3529 T1         2 LUT      0.092510
    220 H31        82.4715   66.6418   39.7366 U9         2 LUT      0.070048
    221 H30        82.5757   65.2931   36.9723 U8         2 LUT      0.085442
    222 H3         66.5145   62.0991   50.5004 U3         2 LUT     -0.031596
    223 H28        84.5000   65.5565   35.6426 U7         2 LUT      0.084728
    224 H27        86.6640   67.4261   36.5083 U6         2 LUT      0.087291
    225 H26        86.2649   65.2977   34.6495 Q6         2 LUT      0.075325
    226 H24        87.4098   67.6334   31.4024 Q5         2 LUT      0.094482
    227 H23        89.4377   67.2358   32.8768 U3         2 LUT     -0.024869
    228 H22        68.8352   61.4982   51.4866 U2         2 LUT      0.127376
    229 H21        69.3681   63.2410   51.0683 U2         2 LUT      0.127376
    230 H15        76.6868   63.6900   39.9788 T3         2 LUT      0.093200
    231 H14        75.7496   64.5234   42.8864 T2         2 LUT      0.068865
    232 H12        73.6797   63.9794   43.6105 T1         2 LUT      0.095507
    233 H11        71.9485   61.8943   42.0969 U9         2 LUT      0.068930
    234 H10        71.6456   63.6823   44.6173 U8         2 LUT      0.083911
    235 H1         89.0451   65.5114   30.6678 Q1         2 LUT      0.297311
@<TRIPOS>BOND
    1     6     1 1
    2     7     2 1
    3     8     3 1
    4     9     4 1
    5    11     4 1
    6    12     6 1
    7    13     9 1
    8    16     9 1
    9    25     5 1
   10    25    16 1
   11    26    10 1
   12    26    17 1
   13    27    18 1
   14    28    14 1
   15    28    19 1
   16    29    12 1
   17    30    13 1
   18    31    24 1
   19    32     1 1
   20    32    25 1
   21    33    21 1
   22    33    26 1
   23    34    22 1
   24    34    27 1
   25    35    23 1
   26    35    28 1
   27    36    12 1
   28    36    24 1
   29    37    13 1
   30    37    15 1
   31    38    31 1
   32    39    20 1
   33    39    32 1
   34    40     2 1
   35    40    33 1
   36    41     3 1
   37    41    34 1
   38    42     4 1
   39    42    35 1
   40    43    38 1
   41    44     5 1
   42    44    17 1
   43    44    39 1
   44    45    10 1
   45    45    18 1
   46    45    40 1
   47    46    19 1
   48    46    41 1
   49    47    14 1
   50    47    16 1
   51    47    42 1
   52    48    38 1
   53    49    48 1
   54    50    49 1
   55    51    50 1
   56    52    51 1
   57    53    51 1
   58    54    53 1
   59    55    54 1
   60    56    55 1
   61    57    56 1
   62    58    56 1
   63    59    58 1
   64    60    59 1
   65    61    60 1
   66    62    61 1
   67    63    61 1
   68    64    27 1
   69    64    46 1
   70    65     5 1
   71    65    10 1
   72    65    64 1
   73    65    14 1
   74    66    23 1
   75    67    23 1
   76    68    23 1
   77    69    22 1
   78    70    22 1
   79    71    22 1
   80    72    21 1
   81    73    21 1
   82    74    21 1
   83    75    20 1
   84    76    20 1
   85    77    20 1
   86    78    15 1
   87    79    15 1
   88    80    15 1
   89    81     8 1
   90    82     8 1
   91    83     8 1
   92    84     7 1
   93    85     7 1
   94    86     6 1
   95    87     6 1
   96    88     3 1
   97    89     3 1
   98    90     1 1
   99    91     1 1
  100    92    63 1
  101    93    63 1
  102    94    63 1
  103    95    62 1
  104    96    62 1
  105    97    62 1
  106    98    60 1
  107    99    60 1
  108   100    59 1
  109   101    59 1
  110   102    58 1
  111   103    58 1
  112   104    57 1
  113   105    57 1
  114   106    57 1
  115   107    55 1
  116   108    55 1
  117   109    54 1
  118   110    54 1
  119   111    53 1
  120   112    53 1
  121   113    19 1
  122   114    18 1
  123   115    17 1
  124   116     9 1
  125   117     2 1
  126   118    52 1
  127   119    52 1
  128   120    52 1
  129   121    51 1
  130   122    50 1
  131   123    50 1
  132   124    49 1
  133   125    49 1
  134   126    48 1
  135   127    48 1
  136   128    43 1
  137   129    43 1
  138   130    43 1
  139   131    39 1
  140   132    32 1
  141   133    31 1
  142   134    61 1
  143   135    56 1
  144   136    24 1
  145   137    24 1
  146   139   138 1
  147   140   139 1
  148   141   140 1
  149   142   140 1
  150   143   142 1
  151   144   138 1
  152   144   143 1
  153   145   144 1
  154   146   145 1
  155   147   146 1
  156   148   147 1
  157   149   148 1
  158   150   149 1
  159   151   150 1
  160   152   151 1
  161   153   152 1
  162   154   138 1
  163   155   138 1
  164   156   143 1
  165   157   147 1
  166   158   151 1
  167   160   159 1
  168   161   160 1
  169   162   161 1
  170   163   161 1
  171   164   163 1
  172   165   159 1
  173   165   164 1
  174   166   165 1
  175   167   166 1
  176   168   167 1
  177   169   168 1
  178   170   169 1
  179   171   170 1
  180   172   171 1
  181   173   172 1
  182   174   153 1
  183   174   173 1
  184   175   159 1
  185   176   159 1
  186   177   164 1
  187   178   168 1
  188   179   172 1
  189   180   179 1
  190   181   179 1
  191   182   179 1
  192   183   178 1
  193   184   178 1
  194   185   178 1
  195   186   177 1
  196   187   177 1
  197   188   177 1
  198   189   176 1
  199   190   176 1
  200   191   176 1
  201   192   175 1
  202   193   175 1
  203   194   175 1
  204   195   160 1
  205   196   160 1
  206   197   158 1
  207   198   158 1
  208   199   158 1
  209   200   157 1
  210   201   157 1
  211   202   157 1
  212   203   156 1
  213   204   156 1
  214   205   156 1
  215   206   155 1
  216   207   155 1
  217   208   155 1
  218   209   154 1
  219   210   154 1
  220   211   154 1
  221   212   141 1
  222   213   146 1
  223   214   145 1
  224   215   142 1
  225   216   142 1
  226   217   174 1
  227   218   173 1
  228   219   171 1
  229   220   170 1
  230   221   169 1
  231   222   140 1
  232   223   167 1
  233   224   166 1
  234   225   165 1
  235   226   163 1
  236   227   161 1
  237   228   139 1
  238   229   139 1
  239   230   153 1
  240   231   152 1
  241   232   150 1
  242   233   149 1
  243   234   148 1
  244   235   162 1
  245   65    153 1
  246   65    174 1
@<TRIPOS>SUBSTRUCTURE
      1 CLA               1 ****               0 ****  **** 
      2 LUT             138 ****               0 ****  **** 
