@<TRIPOS>MOLECULE
Cpptraj generated mol2 file.
  235   246     2     0     0
SMALL
USER_CHARGES


@<TRIPOS>ATOM
      1 CAA        79.4860   58.7060   34.1137 a2         1 CLA     -0.055900
      2 CAB        79.2563   62.2473   43.1156 c8         1 CLA     -0.148500
      3 CAC        72.3702   57.8497   42.5175 a2         1 CLA     -0.012600
      4 CAD        75.0259   56.0593   35.1178 ck         1 CLA      0.398800
      5 NA         78.2385   59.0234   37.4777 ns         1 CLA     -0.225500
      6 CBA        80.7630   58.5435   33.3515 a2         1 CLA     -0.135000
      7 CBB        80.3894   62.1115   43.8311 c0         1 CLA     -0.395200
      8 CBC        72.7512   56.3885   42.7311 a3         1 CLA     -0.037700
      9 CBD        76.4419   56.6675   34.7941 a1         1 CLA     -0.053900
     10 NB         78.0078   60.3435   40.1479 nm         1 CLA     -0.295700
     11 OBD        74.3727   55.3032   34.4143 o2         1 CLA     -0.494600
     12 CGA        81.2479   57.2218   32.7940 c4         1 CLA      0.827000
     13 CGD        77.4771   55.6457   34.3757 c4         1 CLA      0.655300
     14 ND         75.4594   58.1512   37.9880 nm         1 CLA     -0.291600
     15 CED        78.3789   53.4483   34.5731 a3         1 CLA      0.005400
     16 CHA        76.8723   57.5731   35.9784 cs         1 CLA     -0.123800
     17 CHB        79.9974   60.2625   38.6570 aa         1 CLA     -0.291900
     18 CHC        76.6580   60.5907   42.1803 aa         1 CLA     -0.090400
     19 CHD        73.5945   57.7425   39.6120 aa         1 CLA     -0.052000
     20 CMA        81.5428   58.0526   37.1241 a3         1 CLA     -0.230700
     21 CMB        81.3995   61.9687   40.7673 a3         1 CLA     -0.180800
     22 CMC        74.5468   59.7307   44.3049 a3         1 CLA     -0.134000
     23 CMD        72.3076   55.8612   37.3447 a3         1 CLA     -0.141100
     24 C1         82.2158   55.1592   33.3322 a2         1 CLA      0.023000
     25 C1A        78.1167   58.2405   36.3114 ac         1 CLA     -0.015100
     26 C1B        79.3213   60.6732   39.8014 cr         1 CLA      0.054700
     27 C1C        75.4782   59.8299   41.8608 cn         1 CLA     -0.005600
     28 C1D        74.2272   57.5098   38.3259 ap         1 CLA     -0.047300
     29 O1A        80.9487   56.8026   31.6991 o2         1 CLA     -0.610800
     30 O1D        78.3405   55.8501   33.5471 o2         1 CLA     -0.558200
     31 C2         83.0341   54.5330   34.5159 c8         1 CLA     -0.325100
     32 C2A        79.4492   58.1301   35.5659 a1         1 CLA      0.098600
     33 C2B        79.9889   61.4164   40.8507 cb         1 CLA      0.088500
     34 C2C        74.4403   59.5085   42.8181 cb         1 CLA      0.053700
     35 C2D        73.6883   56.5783   37.3280 cb         1 CLA      0.058900
     36 O2A        81.9084   56.5051   33.6900 o1         1 CLA     -0.437200
     37 O2D        77.4428   54.4631   35.0200 o1         1 CLA     -0.357600
     38 C3         84.1196   53.7539   34.5370 c5         1 CLA      0.031200
     39 C3A        80.4031   58.9340   36.5058 a1         1 CLA      0.166800
     40 C3B        79.0528   61.5440   41.8081 cb         1 CLA      0.035000
     41 C3C        73.5500   58.6094   42.0261 cb         1 CLA     -0.089900
     42 C3D        74.6952   56.6746   36.3585 cb         1 CLA     -0.035900
     43 C4         83.9115   52.2755   34.9095 a3         1 CLA     -0.053300
     44 C4A        79.4754   59.4390   37.6218 ac         1 CLA      0.001800
     45 C4B        77.7984   60.8346   41.3908 cn         1 CLA     -0.020900
     46 C4C        74.1710   58.4934   40.6797 cr         1 CLA     -0.044400
     47 C4D        75.7167   57.6205   36.7659 c6         1 CLA     -0.046000
     48 C5         85.5811   54.3517   34.5185 a2         1 CLA     -0.070400
     49 C6         85.8226   55.5387   35.3481 a2         1 CLA      0.043900
     50 C7         85.6512   55.3189   36.8248 a2         1 CLA     -0.150000
     51 C8         85.5416   56.6147   37.6963 a1         1 CLA      0.064200
     52 C9         86.8355   57.4304   37.6277 a3         1 CLA     -0.259300
     53 C10        85.1060   56.2797   39.1255 a2         1 CLA     -0.071900
     54 C11        84.6068   57.4724   39.9912 a2         1 CLA      0.014500
     55 C12        84.0659   57.1314   41.3694 a2         1 CLA     -0.112100
     56 C13        83.3646   58.1587   42.1317 a1         1 CLA      0.089200
     57 C14        84.2154   59.4392   42.1978 a3         1 CLA     -0.239100
     58 C15        83.0488   57.6329   43.5937 a2         1 CLA     -0.102200
     59 C16        82.0485   56.4851   43.6955 a2         1 CLA      0.023900
     60 C17        80.6020   56.9098   43.3110 a2         1 CLA     -0.105700
     61 C18        79.9995   58.0632   44.1244 a1         1 CLA      0.206800
     62 C19        78.5325   58.2896   43.8170 a3         1 CLA     -0.280100
     63 C20        80.1008   57.8185   45.6134 a3         1 CLA     -0.280100
     64 NC         75.2713   59.2401   40.5807 nx         1 CLA     -0.309200
     65 MG         76.6915   59.2813   39.0339 mg         1 CLA      0.895000
     66 HMD3       71.5259   56.6214   37.4258 dc         1 CLA      0.064300
     67 HMD2       72.0699   55.4599   36.3586 dc         1 CLA      0.064300
     68 HMD1       72.2866   55.2002   38.1807 dc         1 CLA      0.064300
     69 HMC3       75.1241   58.8747   44.6653 dc         1 CLA      0.052100
     70 HMC2       74.9507   60.6686   44.5421 dc         1 CLA      0.052100
     71 HMC1       73.6139   59.6587   44.8456 dc         1 CLA      0.052100
     72 HMB3       81.3386   62.9071   41.3002 dc         1 CLA      0.063600
     73 HMB2       82.1366   61.3224   41.2209 dc         1 CLA      0.063600
     74 HMB1       81.6774   62.2196   39.7688 dc         1 CLA      0.063600
     75 HMA3       81.0793   57.3073   37.8039 dc         1 CLA      0.058300
     76 HMA2       82.0621   57.5915   36.2277 dc         1 CLA      0.058300
     77 HMA1       82.1938   58.6281   37.6220 dc         1 CLA      0.058300
     78 HED3       79.4366   53.4814   34.8006 dc         1 CLA      0.079300
     79 HED2       77.9654   52.5057   35.0041 dc         1 CLA      0.079300
     80 HED1       78.2839   53.4066   33.4598 dc         1 CLA      0.079300
     81 HBC3       71.7264   55.8470   42.7542 dc         1 CLA      0.016300
     82 HBC2       73.2174   56.0469   41.8608 dc         1 CLA      0.016300
     83 HBC1       73.3091   56.1344   43.6707 dc         1 CLA      0.016300
     84 HBB2       80.5381   62.7597   44.6778 da         1 CLA      0.183000
     85 HBB1       81.2499   61.5210   43.3688 da         1 CLA      0.183000
     86 HBA2       80.7630   59.2033   32.4437 dc         1 CLA      0.029400
     87 HBA1       81.4681   58.8546   34.0470 dc         1 CLA      0.029400
     88 HAC2       72.0548   58.3818   43.4117 dc         1 CLA      0.029300
     89 HAC1       71.6436   57.9311   41.6692 dc         1 CLA      0.029300
     90 HAA2       78.6620   58.2849   33.4431 dc         1 CLA      0.028700
     91 HAA1       79.1813   59.7420   34.1305 dc         1 CLA      0.028700
     92 H203       79.2505   58.2592   46.1416 dc         1 CLA      0.065600
     93 H202       80.0708   56.7228   45.8870 dc         1 CLA      0.065600
     94 H201       81.0937   58.1999   46.0209 dc         1 CLA      0.065600
     95 H193       78.1749   59.3553   44.0758 dc         1 CLA      0.065600
     96 H192       78.2949   58.0779   42.7450 dc         1 CLA      0.065600
     97 H191       77.9493   57.4966   44.3308 dc         1 CLA      0.065600
     98 H172       80.5798   57.1056   42.2459 dc         1 CLA      0.027600
     99 H171       80.0142   56.0116   43.4230 dc         1 CLA      0.027600
    100 H162       82.3463   55.7347   42.9911 dc         1 CLA      0.002900
    101 H161       82.0064   56.1225   44.7065 dc         1 CLA      0.002900
    102 H152       83.9128   57.2149   43.9874 dc         1 CLA      0.029100
    103 H151       82.7517   58.3736   44.2942 dc         1 CLA      0.029100
    104 H143       83.8531   60.1286   42.8671 dc         1 CLA      0.063600
    105 H142       85.2087   59.0731   42.5087 dc         1 CLA      0.063600
    106 H141       84.2721   59.9296   41.2310 dc         1 CLA      0.063600
    107 H122       83.4274   56.1823   41.1913 dc         1 CLA      0.032500
    108 H121       85.0187   57.0354   41.9473 dc         1 CLA      0.032500
    109 H112       85.3154   58.2880   40.0298 dc         1 CLA      0.006600
    110 H111       83.7382   57.9310   39.5054 dc         1 CLA      0.006600
    111 H102       84.2214   55.6397   39.0709 dc         1 CLA      0.024100
    112 H101       86.0291   55.8351   39.5565 dc         1 CLA      0.024100
    113 HHD        72.7015   57.1280   39.8504 da         1 CLA      0.174300
    114 HHC        76.6560   61.0391   43.2288 da         1 CLA      0.136800
    115 HHB        81.0057   60.5279   38.5705 da         1 CLA      0.138300
    116 HBD        76.3047   57.3354   33.9382 dc         1 CLA      0.107700
    117 HAB        78.4139   62.8871   43.5667 da         1 CLA      0.155200
    118 H93        87.0578   57.7258   36.5720 dc         1 CLA      0.069500
    119 H92        86.6454   58.4080   38.1360 dc         1 CLA      0.069500
    120 H91        87.6543   56.9596   38.1152 dc         1 CLA      0.069500
    121 H8         84.6915   57.2996   37.3795 dc         1 CLA      0.029300
    122 H72        84.7994   54.7043   37.0017 dc         1 CLA      0.044400
    123 H71        86.4611   54.8435   37.3179 dc         1 CLA      0.044400
    124 H62        86.7467   56.0543   35.1179 dc         1 CLA      0.015600
    125 H61        85.0799   56.2022   34.9591 dc         1 CLA      0.015600
    126 H52        86.2655   53.6196   34.9876 dc         1 CLA      0.033200
    127 H51        85.9091   54.6410   33.5173 dc         1 CLA      0.033200
    128 H43        82.9105   51.9385   35.1474 dc         1 CLA      0.037000
    129 H42        84.2960   51.5818   34.1433 dc         1 CLA      0.037000
    130 H41        84.4844   52.2243   35.8281 dc         1 CLA      0.037000
    131 H3A        80.8400   59.8641   36.1272 dc         1 CLA      0.041100
    132 H2A        79.7342   57.0745   35.5710 dc         1 CLA      0.083100
    133 H2         82.8150   54.9828   35.4878 da         1 CLA      0.180900
    134 H18        80.4859   59.0374   43.8480 dc         1 CLA     -0.003900
    135 H13        82.4743   58.4630   41.5771 dc         1 CLA      0.019700
    136 H12        81.2550   54.6586   33.1527 dc         1 CLA      0.120400
    137 H11        82.7626   55.2062   32.3927 dc         1 CLA      0.120400
    138 C1         69.1618   61.8010   50.5221 Z1         2 LUT      0.509236
    139 C2         67.8273   61.5922   51.1510 Z2         2 LUT     -0.434695
    140 C3         66.9997   62.7669   51.6492 Z3         2 LUT      0.437453
    141 O3         67.3092   63.0605   53.0497 S1         2 LUT     -0.547129
    142 C4         67.2686   63.9598   50.7325 Z4         2 LUT     -0.468603
    143 C5         67.9657   63.7732   49.4712 Z5         2 LUT      0.279246
    144 C6         68.9025   62.7974   49.3436 Z6         2 LUT     -0.305473
    145 C7         69.4626   62.3486   48.0009 Z7         2 LUT      0.069402
    146 C8         70.6403   62.6443   47.3587 Z8         2 LUT     -0.191631
    147 C9         71.1865   62.2140   46.0841 Z9         2 LUT      0.196698
    148 C10        72.1858   62.9743   45.5166 Y1         2 LUT     -0.208611
    149 C11        72.7325   62.9405   44.2164 Y2         2 LUT      0.030784
    150 C12        73.8750   63.6333   43.9653 Y3         2 LUT     -0.220316
    151 C13        74.7536   63.8317   42.7730 Y4         2 LUT      0.215937
    152 C14        75.9696   64.4508   42.9326 Y5         2 LUT     -0.185793
    153 C15        76.9846   64.5550   41.9525 Y6         2 LUT     -0.057835
    154 C16        69.7546   60.4338   50.2285 Y7         2 LUT     -0.405615
    155 C17        70.0286   62.5275   51.6509 Y7         2 LUT     -0.405615
    156 C18        67.3323   64.6935   48.4186 Y9         2 LUT     -0.369639
    157 C19        70.4474   61.0470   45.5019 W1         2 LUT     -0.333362
    158 C20        74.2731   63.4057   41.3772 W2         2 LUT     -0.323439
    159 C21        88.0535   66.2630   35.1331 Z1         2 LUT      0.406104
    160 C22        88.5637   65.7074   33.8376 Z2         2 LUT     -0.404965
    161 C23        88.7347   66.6918   32.6655 Z3         2 LUT      0.391255
    162 O23        89.2643   65.8134   31.6690 S1         2 LUT     -0.528210
    163 C24        87.4409   67.5350   32.5172 W6         2 LUT     -0.258361
    164 C25        86.4983   67.6217   33.4734 Z5         2 LUT      0.133546
    165 C26        86.6062   66.7555   34.7532 W8         2 LUT     -0.147008
    166 C27        85.8593   67.4246   35.9488 Z7         2 LUT      0.023843
    167 C28        84.7657   66.9929   36.6019 Z8         2 LUT     -0.216987
    168 C29        84.1561   67.4264   37.8847 Z9         2 LUT      0.206524
    169 C30        83.0860   66.6700   38.3670 Y1         2 LUT     -0.215556
    170 C31        82.2712   66.8155   39.5847 Y2         2 LUT      0.025142
    171 C32        81.2115   66.0491   39.8602 Y3         2 LUT     -0.212209
    172 C33        80.3845   66.1799   41.0702 Y4         2 LUT      0.240937
    173 C34        79.1772   65.4229   41.1189 Y5         2 LUT     -0.218862
    174 C35        78.1242   65.3544   42.1562 Y6         2 LUT     -0.023547
    175 C36        88.8662   67.5296   35.6435 Y7         2 LUT     -0.393485
    176 C37        87.9360   65.1717   36.2853 Y7         2 LUT     -0.393485
    177 C38        85.2603   68.5625   33.3456 Y9         2 LUT     -0.387526
    178 C39        84.7534   68.6449   38.6297 W1         2 LUT     -0.322618
    179 C40        80.7410   67.0979   42.1977 W2         2 LUT     -0.358472
    180 H403       80.1762   66.8430   43.0573 R7         2 LUT      0.097720
    181 H402       81.7745   67.1146   42.4556 R7         2 LUT      0.097720
    182 H401       80.4726   68.1677   42.0041 R7         2 LUT      0.097720
    183 H393       85.7654   68.4943   39.0969 R4         2 LUT      0.082505
    184 H392       85.0448   69.4777   37.9418 R4         2 LUT      0.082505
    185 H391       84.1138   68.9480   39.4246 R4         2 LUT      0.082505
    186 H383       85.3904   69.0984   32.4027 R1         2 LUT      0.104030
    187 H382       84.2989   68.0508   33.2958 R1         2 LUT      0.104030
    188 H381       85.2281   69.2070   34.2151 R1         2 LUT      0.104030
    189 H373       87.4934   64.2399   35.8549 T4         2 LUT      0.089537
    190 H372       88.9828   64.9979   36.6865 T4         2 LUT      0.089537
    191 H371       87.3234   65.4844   37.1219 T4         2 LUT      0.089537
    192 H363       88.6029   68.3871   34.9953 T4         2 LUT      0.089537
    193 H362       88.7118   67.7538   36.6918 T4         2 LUT      0.089537
    194 H361       89.9448   67.4759   35.4655 T4         2 LUT      0.089537
    195 H222       89.5800   65.2739   33.9207 U2         2 LUT      0.127376
    196 H221       87.8733   65.0007   33.5577 U2         2 LUT      0.127376
    197 H203       74.8756   62.6037   41.0006 R7         2 LUT      0.087068
    198 H202       73.2190   63.0480   41.4125 R7         2 LUT      0.087068
    199 H201       74.2882   64.1998   40.6782 R7         2 LUT      0.087068
    200 H193       70.1275   60.1395   46.0638 R4         2 LUT      0.089716
    201 H192       69.5860   61.4458   45.0225 R4         2 LUT      0.089716
    202 H191       71.0501   60.6075   44.6735 R4         2 LUT      0.089716
    203 H183       66.2059   64.5308   48.4466 R1         2 LUT      0.094572
    204 H182       67.5085   65.7444   48.6946 R1         2 LUT      0.094572
    205 H181       67.6624   64.5427   47.3516 R1         2 LUT      0.094572
    206 H173       69.8757   62.0155   52.6570 T4         2 LUT      0.093752
    207 H172       71.1027   62.4916   51.4172 T4         2 LUT      0.093752
    208 H171       69.7327   63.5464   51.8647 T4         2 LUT      0.093752
    209 H163       69.2686   59.9310   49.4324 T4         2 LUT      0.093752
    210 H162       70.7915   60.5312   49.9385 T4         2 LUT      0.093752
    211 H161       69.8001   59.7665   51.0682 T4         2 LUT      0.093752
    212 HO3        66.9026   62.4773   53.7173 Q1         2 LUT      0.300121
    213 H8         71.2384   63.4077   47.8510 U7         2 LUT      0.080784
    214 H7         68.8172   61.6926   47.4522 U6         2 LUT      0.042190
    215 H42        66.2965   64.4790   50.5263 U5         2 LUT      0.145166
    216 H41        67.6768   64.7542   51.2619 U5         2 LUT      0.145166
    217 H35        78.1292   66.0046   43.0873 T3         2 LUT      0.077919
    218 H34        79.0050   64.7857   40.2900 T2         2 LUT      0.073626
    219 H32        80.9233   65.2508   39.1808 T1         2 LUT      0.092510
    220 H31        82.6596   67.5352   40.3397 U9         2 LUT      0.070048
    221 H30        82.7194   65.9875   37.5867 U8         2 LUT      0.085442
    222 H3         65.9703   62.4343   51.5798 U3         2 LUT     -0.031596
    223 H28        84.2801   66.0388   36.2525 U7         2 LUT      0.084728
    224 H27        86.4419   68.2350   36.3442 U6         2 LUT      0.087291
    225 H26        86.0658   65.8488   34.4118 Q6         2 LUT      0.075325
    226 H24        87.4340   68.1771   31.5944 Q5         2 LUT      0.094482
    227 H23        89.5346   67.3928   33.0343 U3         2 LUT     -0.024869
    228 H22        67.2472   61.0292   50.3964 U2         2 LUT      0.127376
    229 H21        67.9604   60.7780   51.8923 U2         2 LUT      0.127376
    230 H15        76.7873   64.0449   40.9867 T3         2 LUT      0.093200
    231 H14        76.2371   64.7228   43.8936 T2         2 LUT      0.068865
    232 H12        74.1624   64.2448   44.8434 T1         2 LUT      0.095507
    233 H11        72.3304   62.2472   43.4501 U9         2 LUT      0.068930
    234 H10        72.5311   63.8611   46.0537 U8         2 LUT      0.083911
    235 H1         88.5516   65.5076   31.0357 Q1         2 LUT      0.297311
@<TRIPOS>BOND
    1     6     1 1
    2     7     2 1
    3     8     3 1
    4     9     4 1
    5    11     4 1
    6    12     6 1
    7    13     9 1
    8    16     9 1
    9    25     5 1
   10    25    16 1
   11    26    10 1
   12    26    17 1
   13    27    18 1
   14    28    14 1
   15    28    19 1
   16    29    12 1
   17    30    13 1
   18    31    24 1
   19    32     1 1
   20    32    25 1
   21    33    21 1
   22    33    26 1
   23    34    22 1
   24    34    27 1
   25    35    23 1
   26    35    28 1
   27    36    12 1
   28    36    24 1
   29    37    13 1
   30    37    15 1
   31    38    31 1
   32    39    20 1
   33    39    32 1
   34    40     2 1
   35    40    33 1
   36    41     3 1
   37    41    34 1
   38    42     4 1
   39    42    35 1
   40    43    38 1
   41    44     5 1
   42    44    17 1
   43    44    39 1
   44    45    10 1
   45    45    18 1
   46    45    40 1
   47    46    19 1
   48    46    41 1
   49    47    14 1
   50    47    16 1
   51    47    42 1
   52    48    38 1
   53    49    48 1
   54    50    49 1
   55    51    50 1
   56    52    51 1
   57    53    51 1
   58    54    53 1
   59    55    54 1
   60    56    55 1
   61    57    56 1
   62    58    56 1
   63    59    58 1
   64    60    59 1
   65    61    60 1
   66    62    61 1
   67    63    61 1
   68    64    27 1
   69    64    46 1
   70    65     5 1
   71    65    10 1
   72    65    64 1
   73    65    14 1
   74    66    23 1
   75    67    23 1
   76    68    23 1
   77    69    22 1
   78    70    22 1
   79    71    22 1
   80    72    21 1
   81    73    21 1
   82    74    21 1
   83    75    20 1
   84    76    20 1
   85    77    20 1
   86    78    15 1
   87    79    15 1
   88    80    15 1
   89    81     8 1
   90    82     8 1
   91    83     8 1
   92    84     7 1
   93    85     7 1
   94    86     6 1
   95    87     6 1
   96    88     3 1
   97    89     3 1
   98    90     1 1
   99    91     1 1
  100    92    63 1
  101    93    63 1
  102    94    63 1
  103    95    62 1
  104    96    62 1
  105    97    62 1
  106    98    60 1
  107    99    60 1
  108   100    59 1
  109   101    59 1
  110   102    58 1
  111   103    58 1
  112   104    57 1
  113   105    57 1
  114   106    57 1
  115   107    55 1
  116   108    55 1
  117   109    54 1
  118   110    54 1
  119   111    53 1
  120   112    53 1
  121   113    19 1
  122   114    18 1
  123   115    17 1
  124   116     9 1
  125   117     2 1
  126   118    52 1
  127   119    52 1
  128   120    52 1
  129   121    51 1
  130   122    50 1
  131   123    50 1
  132   124    49 1
  133   125    49 1
  134   126    48 1
  135   127    48 1
  136   128    43 1
  137   129    43 1
  138   130    43 1
  139   131    39 1
  140   132    32 1
  141   133    31 1
  142   134    61 1
  143   135    56 1
  144   136    24 1
  145   137    24 1
  146   139   138 1
  147   140   139 1
  148   141   140 1
  149   142   140 1
  150   143   142 1
  151   144   138 1
  152   144   143 1
  153   145   144 1
  154   146   145 1
  155   147   146 1
  156   148   147 1
  157   149   148 1
  158   150   149 1
  159   151   150 1
  160   152   151 1
  161   153   152 1
  162   154   138 1
  163   155   138 1
  164   156   143 1
  165   157   147 1
  166   158   151 1
  167   160   159 1
  168   161   160 1
  169   162   161 1
  170   163   161 1
  171   164   163 1
  172   165   159 1
  173   165   164 1
  174   166   165 1
  175   167   166 1
  176   168   167 1
  177   169   168 1
  178   170   169 1
  179   171   170 1
  180   172   171 1
  181   173   172 1
  182   174   153 1
  183   174   173 1
  184   175   159 1
  185   176   159 1
  186   177   164 1
  187   178   168 1
  188   179   172 1
  189   180   179 1
  190   181   179 1
  191   182   179 1
  192   183   178 1
  193   184   178 1
  194   185   178 1
  195   186   177 1
  196   187   177 1
  197   188   177 1
  198   189   176 1
  199   190   176 1
  200   191   176 1
  201   192   175 1
  202   193   175 1
  203   194   175 1
  204   195   160 1
  205   196   160 1
  206   197   158 1
  207   198   158 1
  208   199   158 1
  209   200   157 1
  210   201   157 1
  211   202   157 1
  212   203   156 1
  213   204   156 1
  214   205   156 1
  215   206   155 1
  216   207   155 1
  217   208   155 1
  218   209   154 1
  219   210   154 1
  220   211   154 1
  221   212   141 1
  222   213   146 1
  223   214   145 1
  224   215   142 1
  225   216   142 1
  226   217   174 1
  227   218   173 1
  228   219   171 1
  229   220   170 1
  230   221   169 1
  231   222   140 1
  232   223   167 1
  233   224   166 1
  234   225   165 1
  235   226   163 1
  236   227   161 1
  237   228   139 1
  238   229   139 1
  239   230   153 1
  240   231   152 1
  241   232   150 1
  242   233   149 1
  243   234   148 1
  244   235   162 1
  245   65    153 1
  246   65    174 1
@<TRIPOS>SUBSTRUCTURE
      1 CLA               1 ****               0 ****  **** 
      2 LUT             138 ****               0 ****  **** 
