@<TRIPOS>MOLECULE
Cpptraj generated mol2 file.
  235   246     2     0     0
SMALL
USER_CHARGES


@<TRIPOS>ATOM
      1 CAA        77.3911   57.1811   33.2540 a2         1 CLA     -0.055900
      2 CAB        76.9876   61.4581   41.9477 c8         1 CLA     -0.148500
      3 CAC        70.0497   57.0507   41.3269 a2         1 CLA     -0.012600
      4 CAD        72.9977   54.8246   34.3106 ck         1 CLA      0.398800
      5 NA         76.1302   57.7279   36.5823 ns         1 CLA     -0.225500
      6 CBA        78.7391   57.0657   32.5523 a2         1 CLA     -0.135000
      7 CBB        78.0657   61.3285   42.7504 c0         1 CLA     -0.395200
      8 CBC        70.3615   55.5809   41.1558 a3         1 CLA     -0.037700
      9 CBD        74.5354   55.1547   34.2180 a1         1 CLA     -0.053900
     10 NB         75.8330   59.4727   39.0250 nm         1 CLA     -0.295700
     11 OBD        72.3239   54.0370   33.6237 o2         1 CLA     -0.494600
     12 CGA        79.2435   55.6062   32.3324 c4         1 CLA      0.827000
     13 CGD        75.2969   53.8669   34.3769 c4         1 CLA      0.655300
     14 ND         73.2503   57.1500   36.9967 nm         1 CLA     -0.291600
     15 CED        75.5293   51.8879   35.6773 a3         1 CLA      0.005400
     16 CHA        74.8078   56.1867   35.2869 cs         1 CLA     -0.123800
     17 CHB        77.8464   59.0186   37.6009 aa         1 CLA     -0.291900
     18 CHC        74.4666   59.8851   40.9657 aa         1 CLA     -0.090400
     19 CHD        71.2997   57.0865   38.4871 aa         1 CLA     -0.052000
     20 CMA        79.5985   56.8445   36.2693 a3         1 CLA     -0.230700
     21 CMB        79.2301   60.9049   39.5977 a3         1 CLA     -0.180800
     22 CMC        72.0321   59.0979   43.0367 a3         1 CLA     -0.134000
     23 CMD        70.1263   54.9176   36.2870 a3         1 CLA     -0.141100
     24 C1         80.3455   53.8370   33.3462 a2         1 CLA      0.023000
     25 C1A        75.9818   56.8857   35.4955 ac         1 CLA     -0.015100
     26 C1B        77.1609   59.5983   38.6671 cr         1 CLA      0.054700
     27 C1C        73.2568   59.1879   40.6517 cn         1 CLA     -0.005600
     28 C1D        71.9828   56.6821   37.3217 ap         1 CLA     -0.047300
     29 O1A        78.9394   54.9106   31.3887 o2         1 CLA     -0.610800
     30 O1D        76.2289   53.5082   33.6400 o2         1 CLA     -0.558200
     31 C2         81.1790   53.6004   34.5613 c8         1 CLA     -0.325100
     32 C2A        77.4066   56.7201   34.7930 a1         1 CLA      0.098600
     33 C2B        77.7851   60.4555   39.6334 cb         1 CLA      0.088500
     34 C2C        72.0726   58.8780   41.4831 cb         1 CLA      0.053700
     35 C2D        71.4418   55.7418   36.3296 cb         1 CLA      0.058900
     36 O2A        79.9903   55.2125   33.3704 o1         1 CLA     -0.437200
     37 O2D        74.8931   53.1152   35.4570 o1         1 CLA     -0.357600
     38 C3         81.9052   52.5346   34.9605 c5         1 CLA      0.031200
     39 C3A        78.3280   57.5167   35.6555 a1         1 CLA      0.166800
     40 C3B        76.8643   60.6325   40.6736 cb         1 CLA      0.035000
     41 C3C        71.2208   57.9529   40.7827 cb         1 CLA     -0.089900
     42 C3D        72.5619   55.6159   35.4821 cb         1 CLA     -0.035900
     43 C4         81.3595   51.2597   35.6115 a3         1 CLA     -0.053300
     44 C4A        77.4065   58.1340   36.6868 ac         1 CLA      0.001800
     45 C4B        75.6935   59.9943   40.2523 cn         1 CLA     -0.020900
     46 C4C        71.8486   57.8689   39.5193 cr         1 CLA     -0.044400
     47 C4D        73.5691   56.4105   35.9544 c6         1 CLA     -0.046000
     48 C5         83.4155   52.6266   34.7269 a2         1 CLA     -0.070400
     49 C6         84.0987   53.9552   35.1704 a2         1 CLA      0.043900
     50 C7         83.8579   54.2832   36.6637 a2         1 CLA     -0.150000
     51 C8         84.1742   55.8317   36.9892 a1         1 CLA      0.064200
     52 C9         85.5545   56.2791   36.4970 a3         1 CLA     -0.259300
     53 C10        83.9731   56.1586   38.4629 a2         1 CLA     -0.071900
     54 C11        82.5779   56.2692   38.9510 a2         1 CLA      0.014500
     55 C12        82.5167   56.7270   40.4483 a2         1 CLA     -0.112100
     56 C13        81.1996   56.4758   41.2415 a1         1 CLA      0.089200
     57 C14        79.9799   56.9946   40.3728 a3         1 CLA     -0.239100
     58 C15        81.1927   57.0825   42.6614 a2         1 CLA     -0.102200
     59 C16        81.4682   58.6351   42.7750 a2         1 CLA      0.023900
     60 C17        81.1285   59.2845   44.1486 a2         1 CLA     -0.105700
     61 C18        81.6039   60.7709   44.2243 a1         1 CLA      0.206800
     62 C19        80.8941   61.3805   45.3906 a3         1 CLA     -0.280100
     63 C20        83.0999   60.6843   44.4496 a3         1 CLA     -0.280100
     64 NC         73.1104   58.4592   39.5241 nx         1 CLA     -0.309200
     65 MG         74.4944   58.3715   37.9279 mg         1 CLA      0.895000
     66 HMD3       69.9567   54.5487   37.2795 dc         1 CLA      0.064300
     67 HMD2       69.3656   55.5489   35.9684 dc         1 CLA      0.064300
     68 HMD1       70.1052   54.1901   35.5293 dc         1 CLA      0.064300
     69 HMC3       72.9244   59.4475   43.4477 dc         1 CLA      0.052100
     70 HMC2       71.2055   59.6834   43.3616 dc         1 CLA      0.052100
     71 HMC1       71.9722   58.0555   43.3082 dc         1 CLA      0.052100
     72 HMB3       79.4222   61.4254   38.6696 dc         1 CLA      0.063600
     73 HMB2       79.2719   61.6258   40.3886 dc         1 CLA      0.063600
     74 HMB1       79.9672   60.0981   39.7742 dc         1 CLA      0.063600
     75 HMA3       80.2430   57.6871   36.5187 dc         1 CLA      0.058300
     76 HMA2       79.3597   56.3608   37.1958 dc         1 CLA      0.058300
     77 HMA1       80.1637   56.2958   35.4318 dc         1 CLA      0.058300
     78 HED3       75.2648   51.7407   36.6777 dc         1 CLA      0.079300
     79 HED2       75.1496   51.0719   35.0424 dc         1 CLA      0.079300
     80 HED1       76.6032   52.0135   35.6274 dc         1 CLA      0.079300
     81 HBC3       70.2269   55.2694   40.1203 dc         1 CLA      0.016300
     82 HBC2       71.4267   55.4411   41.4112 dc         1 CLA      0.016300
     83 HBC1       69.7380   55.0237   41.9221 dc         1 CLA      0.016300
     84 HBB2       78.2671   62.0485   43.5265 da         1 CLA      0.183000
     85 HBB1       78.9097   60.6608   42.5795 da         1 CLA      0.183000
     86 HBA2       78.6218   57.4058   31.4575 dc         1 CLA      0.029400
     87 HBA1       79.4902   57.6363   33.1292 dc         1 CLA      0.029400
     88 HAC2       69.8157   56.9574   42.4179 dc         1 CLA      0.029300
     89 HAC1       69.1518   57.2995   40.7771 dc         1 CLA      0.029300
     90 HAA2       76.6083   56.7542   32.7076 dc         1 CLA      0.028700
     91 HAA1       77.1382   58.2392   33.1462 dc         1 CLA      0.028700
     92 H203       83.2449   60.1059   45.2832 dc         1 CLA      0.065600
     93 H202       83.6323   60.3605   43.5197 dc         1 CLA      0.065600
     94 H201       83.4669   61.7054   44.6766 dc         1 CLA      0.065600
     95 H193       79.7813   61.4373   45.1973 dc         1 CLA      0.065600
     96 H192       81.1458   60.7881   46.2884 dc         1 CLA      0.065600
     97 H191       81.1255   62.4396   45.5623 dc         1 CLA      0.065600
     98 H172       80.0842   59.3703   44.3460 dc         1 CLA      0.027600
     99 H171       81.4607   58.6568   44.9999 dc         1 CLA      0.027600
    100 H162       82.6128   58.6514   42.5325 dc         1 CLA      0.002900
    101 H161       80.9110   59.2123   42.0344 dc         1 CLA      0.002900
    102 H152       80.2287   56.7418   43.1339 dc         1 CLA      0.029100
    103 H151       81.9380   56.5782   43.2714 dc         1 CLA      0.029100
    104 H143       79.7636   58.0423   40.3582 dc         1 CLA      0.063600
    105 H142       79.7939   56.5801   39.3571 dc         1 CLA      0.063600
    106 H141       79.1794   56.6372   40.9756 dc         1 CLA      0.063600
    107 H122       83.3126   56.1188   40.9739 dc         1 CLA      0.032500
    108 H121       82.7596   57.8054   40.6001 dc         1 CLA      0.032500
    109 H112       82.0920   57.0593   38.4142 dc         1 CLA      0.006600
    110 H111       82.1480   55.2200   38.8812 dc         1 CLA      0.006600
    111 H102       84.5554   55.4281   38.9528 dc         1 CLA      0.024100
    112 H101       84.5403   57.0845   38.6031 dc         1 CLA      0.024100
    113 HHD        70.2382   56.7730   38.5633 da         1 CLA      0.174300
    114 HHC        74.5404   60.3051   41.9603 da         1 CLA      0.136800
    115 HHB        78.9927   59.1515   37.4767 da         1 CLA      0.138300
    116 HBD        74.7233   55.5599   33.1890 dc         1 CLA      0.107700
    117 HAB        76.1872   62.2088   42.1756 da         1 CLA      0.155200
    118 H93        86.4405   56.0349   37.1308 dc         1 CLA      0.069500
    119 H92        85.7781   55.9787   35.4657 dc         1 CLA      0.069500
    120 H91        85.5954   57.4119   36.5311 dc         1 CLA      0.069500
    121 H8         83.4351   56.4634   36.5074 dc         1 CLA      0.029300
    122 H72        82.8038   53.9983   37.0312 dc         1 CLA      0.044400
    123 H71        84.6230   53.8644   37.2327 dc         1 CLA      0.044400
    124 H62        85.1566   53.8488   34.8622 dc         1 CLA      0.015600
    125 H61        83.5613   54.7047   34.5885 dc         1 CLA      0.015600
    126 H52        83.8624   51.8495   35.2664 dc         1 CLA      0.033200
    127 H51        83.6450   52.4931   33.7031 dc         1 CLA      0.033200
    128 H43        81.6570   51.1146   36.6768 dc         1 CLA      0.037000
    129 H42        80.2784   51.2407   35.3840 dc         1 CLA      0.037000
    130 H41        81.8595   50.4582   35.0081 dc         1 CLA      0.037000
    131 H3A        78.6124   58.3749   35.0046 dc         1 CLA      0.041100
    132 H2A        77.6115   55.6499   34.8499 dc         1 CLA      0.083100
    133 H2         81.0624   54.4208   35.2655 da         1 CLA      0.180900
    134 H18        81.3387   61.2178   43.2547 dc         1 CLA     -0.003900
    135 H13        81.0191   55.4635   41.4400 dc         1 CLA      0.019700
    136 H12        79.5034   53.1027   33.2774 dc         1 CLA      0.120400
    137 H11        80.8816   53.5990   32.4381 dc         1 CLA      0.120400
    138 C1         67.4101   60.5770   48.4237 Z1         2 LUT      0.509236
    139 C2         66.0894   60.3394   49.1120 Z2         2 LUT     -0.434695
    140 C3         65.3999   61.6091   49.5431 Z3         2 LUT      0.437453
    141 O3         65.1513   61.7285   50.9758 S1         2 LUT     -0.547129
    142 C4         65.8946   62.8766   48.9211 Z4         2 LUT     -0.468603
    143 C5         66.3859   62.6508   47.4596 Z5         2 LUT      0.279246
    144 C6         67.2943   61.6645   47.3245 Z6         2 LUT     -0.305473
    145 C7         67.6001   61.1933   45.9488 Z7         2 LUT      0.069402
    146 C8         68.4983   61.8184   45.1488 Z8         2 LUT     -0.191631
    147 C9         68.8901   61.4999   43.7891 Z9         2 LUT      0.196698
    148 C10        69.8641   62.2109   43.2409 Y1         2 LUT     -0.208611
    149 C11        70.4881   62.0951   41.9330 Y2         2 LUT      0.030784
    150 C12        71.6488   62.7793   41.6486 Y3         2 LUT     -0.220316
    151 C13        72.5091   62.5802   40.4771 Y4         2 LUT      0.215937
    152 C14        73.6989   63.1822   40.4743 Y5         2 LUT     -0.185793
    153 C15        74.7708   63.1103   39.5176 Y6         2 LUT     -0.057835
    154 C16        67.8200   59.2070   47.9615 Y7         2 LUT     -0.405615
    155 C17        68.4281   61.0925   49.4813 Y7         2 LUT     -0.405615
    156 C18        65.5743   63.3835   46.4498 Y9         2 LUT     -0.369639
    157 C19        68.1471   60.3681   43.1285 W1         2 LUT     -0.333362
    158 C20        71.9172   62.0208   39.1563 W2         2 LUT     -0.323439
    159 C21        86.1837   64.0702   33.7544 Z1         2 LUT      0.406104
    160 C22        87.1149   63.5035   32.6410 Z2         2 LUT     -0.404965
    161 C23        87.4708   64.5162   31.6351 Z3         2 LUT      0.391255
    162 O23        88.2024   63.8713   30.5550 S1         2 LUT     -0.528210
    163 C24        86.3453   65.4332   31.2514 W6         2 LUT     -0.258361
    164 C25        85.1808   65.4779   31.8972 Z5         2 LUT      0.133546
    165 C26        84.9030   64.6843   33.1084 W8         2 LUT     -0.147008
    166 C27        84.0036   65.3414   34.1325 Z7         2 LUT      0.023843
    167 C28        82.9633   64.7922   34.8131 Z8         2 LUT     -0.216987
    168 C29        82.2244   65.4057   35.8848 Z9         2 LUT      0.206524
    169 C30        81.1583   64.5734   36.3915 Y1         2 LUT     -0.215556
    170 C31        80.1954   64.8560   37.4270 Y2         2 LUT      0.025142
    171 C32        79.1257   64.0927   37.7190 Y3         2 LUT     -0.212209
    172 C33        78.2465   64.3733   38.7469 Y4         2 LUT      0.240937
    173 C34        77.1052   63.6535   38.8262 Y5         2 LUT     -0.218862
    174 C35        75.9430   63.8089   39.6446 Y6         2 LUT     -0.023547
    175 C36        87.0123   65.0430   34.6772 Y7         2 LUT     -0.393485
    176 C37        85.7740   62.8640   34.6946 Y7         2 LUT     -0.393485
    177 C38        84.0996   66.3530   31.3036 Y9         2 LUT     -0.387526
    178 C39        82.6649   66.7196   36.4010 W1         2 LUT     -0.322618
    179 C40        78.6277   65.2505   39.8684 W2         2 LUT     -0.358472
    180 H403       77.8219   65.2704   40.5858 R7         2 LUT      0.097720
    181 H402       79.4552   64.9290   40.4454 R7         2 LUT      0.097720
    182 H401       78.8667   66.2445   39.6137 R7         2 LUT      0.097720
    183 H393       83.7365   66.8343   36.5125 R4         2 LUT      0.082505
    184 H392       82.3589   67.5166   35.7383 R4         2 LUT      0.082505
    185 H391       82.2551   66.9549   37.4068 R4         2 LUT      0.082505
    186 H383       83.2074   65.6916   31.2072 R1         2 LUT      0.104030
    187 H382       83.7875   67.1357   32.0816 R1         2 LUT      0.104030
    188 H381       84.3415   66.7396   30.3881 R1         2 LUT      0.104030
    189 H373       85.4124   62.0023   34.1472 T4         2 LUT      0.089537
    190 H372       86.5511   62.4748   35.2655 T4         2 LUT      0.089537
    191 H371       84.9952   63.0976   35.4422 T4         2 LUT      0.089537
    192 H363       87.8721   64.5900   35.0010 T4         2 LUT      0.089537
    193 H362       87.3036   65.8285   34.1133 T4         2 LUT      0.089537
    194 H361       86.3370   65.3640   35.4633 T4         2 LUT      0.089537
    195 H222       88.0299   63.1890   32.9524 U2         2 LUT      0.127376
    196 H221       86.5712   62.6745   32.0664 U2         2 LUT      0.127376
    197 H203       72.5238   62.3520   38.2848 R7         2 LUT      0.087068
    198 H202       71.9517   60.9507   39.1990 R7         2 LUT      0.087068
    199 H201       70.8919   62.3416   38.9521 R7         2 LUT      0.087068
    200 H193       68.4368   59.4732   43.6442 R4         2 LUT      0.089716
    201 H192       67.0621   60.4763   43.2041 R4         2 LUT      0.089716
    202 H191       68.4216   60.2933   42.0937 R4         2 LUT      0.089716
    203 H183       65.7027   64.4361   46.5206 R1         2 LUT      0.094572
    204 H182       65.8423   63.0850   45.4790 R1         2 LUT      0.094572
    205 H181       64.4808   63.1799   46.5000 R1         2 LUT      0.094572
    206 H173       68.2999   60.4769   50.3171 T4         2 LUT      0.093752
    207 H172       69.3085   60.7318   48.9921 T4         2 LUT      0.093752
    208 H171       68.5767   62.1894   49.6281 T4         2 LUT      0.093752
    209 H163       68.7781   59.3242   47.4976 T4         2 LUT      0.093752
    210 H162       67.8273   58.4207   48.6851 T4         2 LUT      0.093752
    211 H161       67.2513   58.7474   47.1504 T4         2 LUT      0.093752
    212 HO3        65.9645   61.7534   51.4747 Q1         2 LUT      0.300121
    213 H8         69.0421   62.6458   45.6664 U7         2 LUT      0.080784
    214 H7         66.9195   60.4663   45.4479 U6         2 LUT      0.042190
    215 H42        65.0321   63.6617   48.9928 U5         2 LUT      0.145166
    216 H41        66.7200   63.3635   49.4787 U5         2 LUT      0.145166
    217 H35        75.8943   64.4634   40.4928 T3         2 LUT      0.077919
    218 H34        76.8731   62.9290   38.0547 T2         2 LUT      0.073626
    219 H32        79.0458   63.1398   37.2069 T1         2 LUT      0.092510
    220 H31        80.4731   65.7034   38.0374 U9         2 LUT      0.070048
    221 H30        80.9193   63.6832   35.8485 U8         2 LUT      0.085442
    222 H3         64.4017   61.3905   49.1896 U3         2 LUT     -0.031596
    223 H28        82.6715   63.8408   34.4708 U7         2 LUT      0.084728
    224 H27        84.2980   66.3507   34.4613 U6         2 LUT      0.087291
    225 H26        84.2363   63.8757   32.6125 Q6         2 LUT      0.075325
    226 H24        86.5491   66.0810   30.3849 Q5         2 LUT      0.094482
    227 H23        88.2131   65.0812   32.1739 U3         2 LUT     -0.024869
    228 H22        65.3902   59.9168   48.3817 U2         2 LUT      0.127376
    229 H21        66.0875   59.6224   49.9675 U2         2 LUT      0.127376
    230 H15        74.7967   62.4080   38.6722 T3         2 LUT      0.093200
    231 H14        73.7805   63.9008   41.3449 T2         2 LUT      0.068865
    232 H12        71.9802   63.3981   42.4955 T1         2 LUT      0.095507
    233 H11        70.0860   61.3393   41.2241 U9         2 LUT      0.068930
    234 H10        70.3055   62.9886   43.7706 U8         2 LUT      0.083911
    235 H1         87.7643   63.7917   29.7545 Q1         2 LUT      0.297311
@<TRIPOS>BOND
    1     6     1 1
    2     7     2 1
    3     8     3 1
    4     9     4 1
    5    11     4 1
    6    12     6 1
    7    13     9 1
    8    16     9 1
    9    25     5 1
   10    25    16 1
   11    26    10 1
   12    26    17 1
   13    27    18 1
   14    28    14 1
   15    28    19 1
   16    29    12 1
   17    30    13 1
   18    31    24 1
   19    32     1 1
   20    32    25 1
   21    33    21 1
   22    33    26 1
   23    34    22 1
   24    34    27 1
   25    35    23 1
   26    35    28 1
   27    36    12 1
   28    36    24 1
   29    37    13 1
   30    37    15 1
   31    38    31 1
   32    39    20 1
   33    39    32 1
   34    40     2 1
   35    40    33 1
   36    41     3 1
   37    41    34 1
   38    42     4 1
   39    42    35 1
   40    43    38 1
   41    44     5 1
   42    44    17 1
   43    44    39 1
   44    45    10 1
   45    45    18 1
   46    45    40 1
   47    46    19 1
   48    46    41 1
   49    47    14 1
   50    47    16 1
   51    47    42 1
   52    48    38 1
   53    49    48 1
   54    50    49 1
   55    51    50 1
   56    52    51 1
   57    53    51 1
   58    54    53 1
   59    55    54 1
   60    56    55 1
   61    57    56 1
   62    58    56 1
   63    59    58 1
   64    60    59 1
   65    61    60 1
   66    62    61 1
   67    63    61 1
   68    64    27 1
   69    64    46 1
   70    65     5 1
   71    65    10 1
   72    65    64 1
   73    65    14 1
   74    66    23 1
   75    67    23 1
   76    68    23 1
   77    69    22 1
   78    70    22 1
   79    71    22 1
   80    72    21 1
   81    73    21 1
   82    74    21 1
   83    75    20 1
   84    76    20 1
   85    77    20 1
   86    78    15 1
   87    79    15 1
   88    80    15 1
   89    81     8 1
   90    82     8 1
   91    83     8 1
   92    84     7 1
   93    85     7 1
   94    86     6 1
   95    87     6 1
   96    88     3 1
   97    89     3 1
   98    90     1 1
   99    91     1 1
  100    92    63 1
  101    93    63 1
  102    94    63 1
  103    95    62 1
  104    96    62 1
  105    97    62 1
  106    98    60 1
  107    99    60 1
  108   100    59 1
  109   101    59 1
  110   102    58 1
  111   103    58 1
  112   104    57 1
  113   105    57 1
  114   106    57 1
  115   107    55 1
  116   108    55 1
  117   109    54 1
  118   110    54 1
  119   111    53 1
  120   112    53 1
  121   113    19 1
  122   114    18 1
  123   115    17 1
  124   116     9 1
  125   117     2 1
  126   118    52 1
  127   119    52 1
  128   120    52 1
  129   121    51 1
  130   122    50 1
  131   123    50 1
  132   124    49 1
  133   125    49 1
  134   126    48 1
  135   127    48 1
  136   128    43 1
  137   129    43 1
  138   130    43 1
  139   131    39 1
  140   132    32 1
  141   133    31 1
  142   134    61 1
  143   135    56 1
  144   136    24 1
  145   137    24 1
  146   139   138 1
  147   140   139 1
  148   141   140 1
  149   142   140 1
  150   143   142 1
  151   144   138 1
  152   144   143 1
  153   145   144 1
  154   146   145 1
  155   147   146 1
  156   148   147 1
  157   149   148 1
  158   150   149 1
  159   151   150 1
  160   152   151 1
  161   153   152 1
  162   154   138 1
  163   155   138 1
  164   156   143 1
  165   157   147 1
  166   158   151 1
  167   160   159 1
  168   161   160 1
  169   162   161 1
  170   163   161 1
  171   164   163 1
  172   165   159 1
  173   165   164 1
  174   166   165 1
  175   167   166 1
  176   168   167 1
  177   169   168 1
  178   170   169 1
  179   171   170 1
  180   172   171 1
  181   173   172 1
  182   174   153 1
  183   174   173 1
  184   175   159 1
  185   176   159 1
  186   177   164 1
  187   178   168 1
  188   179   172 1
  189   180   179 1
  190   181   179 1
  191   182   179 1
  192   183   178 1
  193   184   178 1
  194   185   178 1
  195   186   177 1
  196   187   177 1
  197   188   177 1
  198   189   176 1
  199   190   176 1
  200   191   176 1
  201   192   175 1
  202   193   175 1
  203   194   175 1
  204   195   160 1
  205   196   160 1
  206   197   158 1
  207   198   158 1
  208   199   158 1
  209   200   157 1
  210   201   157 1
  211   202   157 1
  212   203   156 1
  213   204   156 1
  214   205   156 1
  215   206   155 1
  216   207   155 1
  217   208   155 1
  218   209   154 1
  219   210   154 1
  220   211   154 1
  221   212   141 1
  222   213   146 1
  223   214   145 1
  224   215   142 1
  225   216   142 1
  226   217   174 1
  227   218   173 1
  228   219   171 1
  229   220   170 1
  230   221   169 1
  231   222   140 1
  232   223   167 1
  233   224   166 1
  234   225   165 1
  235   226   163 1
  236   227   161 1
  237   228   139 1
  238   229   139 1
  239   230   153 1
  240   231   152 1
  241   232   150 1
  242   233   149 1
  243   234   148 1
  244   235   162 1
  245   65    153 1
  246   65    174 1
@<TRIPOS>SUBSTRUCTURE
      1 CLA               1 ****               0 ****  **** 
      2 LUT             138 ****               0 ****  **** 
