@<TRIPOS>MOLECULE
Cpptraj generated mol2 file.
  235   246     2     0     0
SMALL
USER_CHARGES


@<TRIPOS>ATOM
      1 CAA        77.9080   57.6738   35.8991 a2         1 CLA     -0.055900
      2 CAB        77.5801   62.2030   44.3422 c8         1 CLA     -0.148500
      3 CAC        70.7283   58.1960   43.9184 a2         1 CLA     -0.012600
      4 CAD        73.7530   54.7972   37.1448 ck         1 CLA      0.398800
      5 NA         76.7164   58.2434   39.0685 ns         1 CLA     -0.225500
      6 CBA        79.0768   57.4103   34.9545 a2         1 CLA     -0.135000
      7 CBB        78.4654   61.8392   45.3262 c0         1 CLA     -0.395200
      8 CBC        70.7618   56.7387   44.2805 a3         1 CLA     -0.037700
      9 CBD        75.2662   55.2075   36.8807 a1         1 CLA     -0.053900
     10 NB         76.5798   60.1164   41.4091 nm         1 CLA     -0.295700
     11 OBD        73.1862   53.8408   36.5726 o2         1 CLA     -0.494600
     12 CGA        79.5640   56.0175   34.5669 c4         1 CLA      0.827000
     13 CGD        76.2093   54.0595   37.0984 c4         1 CLA      0.655300
     14 ND         73.9231   57.4984   39.5657 nm         1 CLA     -0.291600
     15 CED        76.6911   52.2290   38.4861 a3         1 CLA      0.005400
     16 CHA        75.5221   56.3997   37.8549 cs         1 CLA     -0.123800
     17 CHB        78.5079   59.7372   39.9644 aa         1 CLA     -0.291900
     18 CHC        75.0966   60.6265   43.3970 aa         1 CLA     -0.090400
     19 CHD        71.9946   57.5516   41.1401 aa         1 CLA     -0.052000
     20 CMA        79.9860   56.9980   39.0859 a3         1 CLA     -0.230700
     21 CMB        79.9872   61.7448   42.0906 a3         1 CLA     -0.180800
     22 CMC        72.8170   60.1968   45.4160 a3         1 CLA     -0.134000
     23 CMD        70.8561   55.3840   39.1303 a3         1 CLA     -0.141100
     24 C1         80.8574   54.2114   35.3616 a2         1 CLA      0.023000
     25 C1A        76.7087   57.1810   38.1129 ac         1 CLA     -0.015100
     26 C1B        77.8624   60.4004   41.0434 cr         1 CLA      0.054700
     27 C1C        74.0060   59.8099   43.1119 cn         1 CLA     -0.005600
     28 C1D        72.6261   57.0964   39.9476 ap         1 CLA     -0.047300
     29 O1A        79.7791   55.5661   33.4396 o2         1 CLA     -0.610800
     30 O1D        77.1035   53.7298   36.3273 o2         1 CLA     -0.558200
     31 C2         81.4079   53.6323   36.6077 c8         1 CLA     -0.325100
     32 C2A        78.0048   57.0796   37.3016 a1         1 CLA      0.098600
     33 C2B        78.4932   61.2799   42.0886 cb         1 CLA      0.088500
     34 C2C        72.9032   59.5846   44.0412 cb         1 CLA      0.053700
     35 C2D        72.1438   56.1108   39.0128 cb         1 CLA      0.058900
     36 O2A        80.0625   55.3812   35.6541 o1         1 CLA     -0.437200
     37 O2D        75.8687   53.4002   38.2545 o1         1 CLA     -0.357600
     38 C3         82.6915   53.5515   36.8819 c5         1 CLA      0.031200
     39 C3A        79.0162   57.8420   38.2037 a1         1 CLA      0.166800
     40 C3B        77.4618   61.4919   43.0630 cb         1 CLA      0.035000
     41 C3C        71.9987   58.6961   43.4516 cb         1 CLA     -0.089900
     42 C3D        73.1956   55.7602   38.1920 cb         1 CLA     -0.035900
     43 C4         83.5732   52.3914   36.4599 a3         1 CLA     -0.053300
     44 C4A        78.0239   58.7304   39.1100 ac         1 CLA      0.001800
     45 C4B        76.3020   60.7273   42.6167 cn         1 CLA     -0.020900
     46 C4C        72.5490   58.4287   42.1221 cr         1 CLA     -0.044400
     47 C4D        74.3239   56.6274   38.5647 c6         1 CLA     -0.046000
     48 C5         83.2783   54.7076   37.7287 a2         1 CLA     -0.070400
     49 C6         84.5206   54.3941   38.5590 a2         1 CLA      0.043900
     50 C7         84.7476   55.4356   39.6916 a2         1 CLA     -0.150000
     51 C8         84.7022   56.9367   39.4204 a1         1 CLA      0.064200
     52 C9         85.8932   57.2342   38.4438 a3         1 CLA     -0.259300
     53 C10        84.8336   57.8255   40.5755 a2         1 CLA     -0.071900
     54 C11        83.6613   57.8728   41.6462 a2         1 CLA      0.014500
     55 C12        83.8279   58.9145   42.7324 a2         1 CLA     -0.112100
     56 C13        85.1510   58.9813   43.5977 a1         1 CLA      0.089200
     57 C14        85.2958   57.7327   44.4694 a3         1 CLA     -0.239100
     58 C15        85.2568   60.1769   44.5561 a2         1 CLA     -0.102200
     59 C16        84.0062   60.4699   45.4165 a2         1 CLA      0.023900
     60 C17        84.2874   61.6943   46.1555 a2         1 CLA     -0.105700
     61 C18        83.1651   61.9746   47.1894 a1         1 CLA      0.206800
     62 C19        81.6985   62.2059   46.6270 a3         1 CLA     -0.280100
     63 C20        83.3159   61.0117   48.3604 a3         1 CLA     -0.280100
     64 NC         73.7496   59.0995   41.9285 nx         1 CLA     -0.309200
     65 MG         75.2152   58.8622   40.3453 mg         1 CLA      0.895000
     66 HMD3       70.6065   55.2235   40.1527 dc         1 CLA      0.064300
     67 HMD2       70.0658   55.9500   38.6175 dc         1 CLA      0.064300
     68 HMD1       71.0630   54.4329   38.5980 dc         1 CLA      0.064300
     69 HMC3       72.8095   61.3082   45.2028 dc         1 CLA      0.052100
     70 HMC2       71.9113   59.9647   45.9865 dc         1 CLA      0.052100
     71 HMC1       73.6580   60.0602   45.9609 dc         1 CLA      0.052100
     72 HMB3       80.5438   61.1428   42.8685 dc         1 CLA      0.063600
     73 HMB2       80.3532   61.5584   41.1339 dc         1 CLA      0.063600
     74 HMB1       80.0999   62.7703   42.3770 dc         1 CLA      0.063600
     75 HMA3       80.6657   57.6892   39.5188 dc         1 CLA      0.058300
     76 HMA2       79.3504   56.3664   39.6598 dc         1 CLA      0.058300
     77 HMA1       80.5334   56.3208   38.4078 dc         1 CLA      0.058300
     78 HED3       76.4153   51.6851   39.4529 dc         1 CLA      0.079300
     79 HED2       76.4603   51.3791   37.7772 dc         1 CLA      0.079300
     80 HED1       77.7369   52.4451   38.3922 dc         1 CLA      0.079300
     81 HBC3       70.5976   56.0999   43.3899 dc         1 CLA      0.016300
     82 HBC2       71.7530   56.4877   44.7026 dc         1 CLA      0.016300
     83 HBC1       70.0540   56.4194   45.0425 dc         1 CLA      0.016300
     84 HBB2       78.3987   62.3619   46.3019 da         1 CLA      0.183000
     85 HBB1       79.1809   61.0426   45.2225 da         1 CLA      0.183000
     86 HBA2       78.7684   57.8774   34.0375 dc         1 CLA      0.029400
     87 HBA1       79.9193   57.9384   35.3340 dc         1 CLA      0.029400
     88 HAC2       70.4319   58.8012   44.7929 dc         1 CLA      0.029300
     89 HAC1       69.9027   58.2565   43.1900 dc         1 CLA      0.029300
     90 HAA2       77.0854   57.2217   35.4379 dc         1 CLA      0.028700
     91 HAA1       77.6496   58.7509   35.9499 dc         1 CLA      0.028700
     92 H203       83.1598   60.0006   48.0151 dc         1 CLA      0.065600
     93 H202       84.3362   61.0954   48.7378 dc         1 CLA      0.065600
     94 H201       82.7459   61.3678   49.2501 dc         1 CLA      0.065600
     95 H193       81.7694   63.0485   45.8672 dc         1 CLA      0.065600
     96 H192       81.3070   61.2995   46.1074 dc         1 CLA      0.065600
     97 H191       80.9627   62.5638   47.4321 dc         1 CLA      0.065600
     98 H172       85.3004   61.7256   46.5778 dc         1 CLA      0.027600
     99 H171       84.4110   62.5383   45.4144 dc         1 CLA      0.027600
    100 H162       83.1663   60.6140   44.7401 dc         1 CLA      0.002900
    101 H161       83.7052   59.5658   45.9949 dc         1 CLA      0.002900
    102 H152       86.0992   59.9584   45.2151 dc         1 CLA      0.029100
    103 H151       85.5117   61.0356   43.9280 dc         1 CLA      0.029100
    104 H143       84.4308   57.6150   45.1190 dc         1 CLA      0.063600
    105 H142       85.3311   56.8468   43.8476 dc         1 CLA      0.063600
    106 H141       86.1239   57.7970   45.1690 dc         1 CLA      0.063600
    107 H122       83.8360   59.9438   42.3406 dc         1 CLA      0.032500
    108 H121       82.8759   58.9084   43.2380 dc         1 CLA      0.032500
    109 H112       82.6881   58.2220   41.2185 dc         1 CLA      0.006600
    110 H111       83.6020   56.9141   42.0836 dc         1 CLA      0.006600
    111 H102       85.7076   57.5117   41.1854 dc         1 CLA      0.024100
    112 H101       84.9348   58.8416   40.1080 dc         1 CLA      0.024100
    113 HHD        71.0471   57.1532   41.3447 da         1 CLA      0.174300
    114 HHC        75.1210   61.1837   44.2995 da         1 CLA      0.136800
    115 HHB        79.4814   60.0548   39.8522 da         1 CLA      0.138300
    116 HBD        75.2556   55.5753   35.8508 dc         1 CLA      0.107700
    117 HAB        76.8247   62.9805   44.6136 da         1 CLA      0.155200
    118 H93        86.8054   56.6954   38.7078 dc         1 CLA      0.069500
    119 H92        85.6134   56.9445   37.4721 dc         1 CLA      0.069500
    120 H91        86.2268   58.2581   38.4412 dc         1 CLA      0.069500
    121 H8         83.7252   57.1884   38.9211 dc         1 CLA      0.029300
    122 H72        83.9056   55.2155   40.3850 dc         1 CLA      0.044400
    123 H71        85.6650   55.1251   40.1674 dc         1 CLA      0.044400
    124 H62        84.3887   53.4101   38.9783 dc         1 CLA      0.015600
    125 H61        85.3789   54.3966   37.8939 dc         1 CLA      0.015600
    126 H52        83.4847   55.6250   37.1386 dc         1 CLA      0.033200
    127 H51        82.4492   55.0772   38.3091 dc         1 CLA      0.033200
    128 H43        83.7672   51.7586   37.3431 dc         1 CLA      0.037000
    129 H42        82.9731   51.8315   35.7167 dc         1 CLA      0.037000
    130 H41        84.5052   52.6337   35.8992 dc         1 CLA      0.037000
    131 H3A        79.7568   58.4486   37.5782 dc         1 CLA      0.041100
    132 H2A        78.4266   56.0663   37.1983 dc         1 CLA      0.083100
    133 H2         80.7483   53.1307   37.3000 da         1 CLA      0.180900
    134 H18        83.3624   62.9695   47.6560 dc         1 CLA     -0.003900
    135 H13        86.0197   58.9179   42.9320 dc         1 CLA      0.019700
    136 H12        80.2242   53.4373   34.9997 dc         1 CLA      0.120400
    137 H11        81.6549   54.3443   34.6418 dc         1 CLA      0.120400
    138 C1         67.0910   62.6426   51.0090 Z1         2 LUT      0.509236
    139 C2         67.2202   64.0049   51.7435 Z2         2 LUT     -0.434695
    140 C3         65.8742   64.8214   51.7270 Z3         2 LUT      0.437453
    141 O3         66.1519   66.2282   51.8419 S1         2 LUT     -0.547129
    142 C4         65.0585   64.6355   50.3440 Z4         2 LUT     -0.468603
    143 C5         65.8089   64.0339   49.2657 Z5         2 LUT      0.279246
    144 C6         66.6815   62.9982   49.4638 Z6         2 LUT     -0.305473
    145 C7         67.4517   62.3737   48.2853 Z7         2 LUT      0.069402
    146 C8         68.3852   63.0079   47.4984 Z8         2 LUT     -0.191631
    147 C9         68.8957   62.3386   46.2716 Z9         2 LUT      0.196698
    148 C10        69.8978   62.9474   45.5728 Y1         2 LUT     -0.208611
    149 C11        70.6261   62.5717   44.3846 Y2         2 LUT      0.030784
    150 C12        71.7449   63.3155   43.9666 Y3         2 LUT     -0.220316
    151 C13        72.5991   62.9824   42.8484 Y4         2 LUT      0.215937
    152 C14        73.8298   63.6427   42.6361 Y5         2 LUT     -0.185793
    153 C15        74.9372   63.5092   41.7684 Y6         2 LUT     -0.057835
    154 C16        65.9610   61.8529   51.7946 Y7         2 LUT     -0.405615
    155 C17        68.3996   61.8900   51.4058 Y7         2 LUT     -0.405615
    156 C18        65.5629   64.6100   47.9222 Y9         2 LUT     -0.369639
    157 C19        68.2866   60.9986   45.8387 W1         2 LUT     -0.333362
    158 C20        72.0063   62.2220   41.7269 W2         2 LUT     -0.323439
    159 C21        86.6725   64.7816   36.2055 Z1         2 LUT      0.406104
    160 C22        87.4146   64.3538   34.9205 Z2         2 LUT     -0.404965
    161 C23        87.5037   65.4444   33.8564 Z3         2 LUT      0.391255
    162 O23        88.3551   64.9447   32.7439 S1         2 LUT     -0.528210
    163 C24        86.1157   66.1148   33.7388 W6         2 LUT     -0.258361
    164 C25        85.0400   65.8863   34.5422 Z5         2 LUT      0.133546
    165 C26        85.1298   64.9723   35.7758 W8         2 LUT     -0.147008
    166 C27        84.2853   65.5705   36.8685 Z7         2 LUT      0.023843
    167 C28        83.0370   65.2167   37.1863 Z8         2 LUT     -0.216987
    168 C29        82.4252   65.7481   38.3523 Z9         2 LUT      0.206524
    169 C30        81.2979   65.0806   38.8168 Y1         2 LUT     -0.215556
    170 C31        80.4458   65.3781   39.9848 Y2         2 LUT      0.025142
    171 C32        79.4261   64.6117   40.2462 Y3         2 LUT     -0.212209
    172 C33        78.4307   64.7305   41.2917 Y4         2 LUT      0.240937
    173 C34        77.1807   64.1656   41.1083 Y5         2 LUT     -0.218862
    174 C35        76.1218   64.1726   41.9968 Y6         2 LUT     -0.023547
    175 C36        87.4170   66.0462   36.7844 Y7         2 LUT     -0.393485
    176 C37        87.0228   63.7578   37.2955 Y7         2 LUT     -0.393485
    177 C38        83.6837   66.4625   34.1399 Y9         2 LUT     -0.387526
    178 C39        82.8218   67.0771   38.9375 W1         2 LUT     -0.322618
    179 C40        78.5846   65.7686   42.4472 W2         2 LUT     -0.358472
    180 H403       79.6342   65.9209   42.7873 R7         2 LUT      0.097720
    181 H402       78.2421   66.7415   42.1864 R7         2 LUT      0.097720
    182 H401       78.0766   65.5235   43.3744 R7         2 LUT      0.097720
    183 H393       83.7283   66.9889   39.5469 R4         2 LUT      0.082505
    184 H392       83.0481   67.8717   38.2002 R4         2 LUT      0.082505
    185 H391       82.0068   67.4667   39.5832 R4         2 LUT      0.082505
    186 H383       83.3023   67.2048   34.8768 R1         2 LUT      0.104030
    187 H382       83.7314   66.8612   33.1631 R1         2 LUT      0.104030
    188 H381       82.9700   65.6161   33.9563 R1         2 LUT      0.104030
    189 H373       86.4504   63.9622   38.2316 T4         2 LUT      0.089537
    190 H372       86.7753   62.7207   37.0524 T4         2 LUT      0.089537
    191 H371       88.1541   63.6334   37.3287 T4         2 LUT      0.089537
    192 H363       87.1922   67.0340   36.3369 T4         2 LUT      0.089537
    193 H362       87.3771   66.1215   37.8739 T4         2 LUT      0.089537
    194 H361       88.5237   65.8587   36.5663 T4         2 LUT      0.089537
    195 H222       88.5260   64.2233   34.9939 U2         2 LUT      0.127376
    196 H221       86.9173   63.4767   34.4327 U2         2 LUT      0.127376
    197 H203       71.3792   61.4170   42.0539 R7         2 LUT      0.087068
    198 H202       71.5264   62.8644   41.0011 R7         2 LUT      0.087068
    199 H201       72.7931   61.7129   41.0686 R7         2 LUT      0.087068
    200 H193       68.2501   60.2964   46.6473 R4         2 LUT      0.089716
    201 H192       67.2550   61.0487   45.5719 R4         2 LUT      0.089716
    202 H191       68.7503   60.5687   44.9886 R4         2 LUT      0.089716
    203 H183       66.3440   65.4409   47.8354 R1         2 LUT      0.094572
    204 H182       65.6973   63.7984   47.1089 R1         2 LUT      0.094572
    205 H181       64.5562   64.9996   47.8851 R1         2 LUT      0.094572
    206 H173       68.4608   60.8998   50.9139 T4         2 LUT      0.093752
    207 H172       69.3057   62.3452   50.9771 T4         2 LUT      0.093752
    208 H171       68.5790   61.7403   52.4505 T4         2 LUT      0.093752
    209 H163       66.0785   60.8114   51.6747 T4         2 LUT      0.093752
    210 H162       65.9761   62.0658   52.8781 T4         2 LUT      0.093752
    211 H161       64.9539   62.0503   51.4669 T4         2 LUT      0.093752
    212 HO3        65.4390   66.6690   52.4321 Q1         2 LUT      0.300121
    213 H8         68.7202   63.9548   47.8022 U7         2 LUT      0.080784
    214 H7         66.9708   61.3953   48.1832 U6         2 LUT      0.042190
    215 H42        64.1907   63.9777   50.5515 U5         2 LUT      0.145166
    216 H41        64.6843   65.6197   50.0194 U5         2 LUT      0.145166
    217 H35        76.1507   64.9546   42.7612 T3         2 LUT      0.077919
    218 H34        77.0407   63.5582   40.2317 T2         2 LUT      0.073626
    219 H32        79.2289   63.7994   39.5414 T1         2 LUT      0.092510
    220 H31        80.5843   66.2391   40.6097 U9         2 LUT      0.070048
    221 H30        81.1530   64.1195   38.2522 U8         2 LUT      0.085442
    222 H3         65.1561   64.5259   52.5314 U3         2 LUT     -0.031596
    223 H28        82.5960   64.3243   36.6669 U7         2 LUT      0.084728
    224 H27        84.7706   66.4365   37.2840 U6         2 LUT      0.087291
    225 H26        84.6884   63.9776   35.5124 Q6         2 LUT      0.075325
    226 H24        85.9809   66.9151   32.9772 Q5         2 LUT      0.094482
    227 H23        88.0876   66.2446   34.3855 U3         2 LUT     -0.024869
    228 H22        67.4073   63.9300   52.7654 U2         2 LUT      0.127376
    229 H21        68.0852   64.6631   51.5053 U2         2 LUT      0.127376
    230 H15        74.8964   62.7941   40.9983 T3         2 LUT      0.093200
    231 H14        74.1538   64.3863   43.4183 T2         2 LUT      0.068865
    232 H12        72.1271   64.0981   44.6925 T1         2 LUT      0.095507
    233 H11        70.2077   61.7414   43.8226 U9         2 LUT      0.068930
    234 H10        70.2919   63.8661   45.9220 U8         2 LUT      0.083911
    235 H1         87.8929   64.2842   32.1953 Q1         2 LUT      0.297311
@<TRIPOS>BOND
    1     6     1 1
    2     7     2 1
    3     8     3 1
    4     9     4 1
    5    11     4 1
    6    12     6 1
    7    13     9 1
    8    16     9 1
    9    25     5 1
   10    25    16 1
   11    26    10 1
   12    26    17 1
   13    27    18 1
   14    28    14 1
   15    28    19 1
   16    29    12 1
   17    30    13 1
   18    31    24 1
   19    32     1 1
   20    32    25 1
   21    33    21 1
   22    33    26 1
   23    34    22 1
   24    34    27 1
   25    35    23 1
   26    35    28 1
   27    36    12 1
   28    36    24 1
   29    37    13 1
   30    37    15 1
   31    38    31 1
   32    39    20 1
   33    39    32 1
   34    40     2 1
   35    40    33 1
   36    41     3 1
   37    41    34 1
   38    42     4 1
   39    42    35 1
   40    43    38 1
   41    44     5 1
   42    44    17 1
   43    44    39 1
   44    45    10 1
   45    45    18 1
   46    45    40 1
   47    46    19 1
   48    46    41 1
   49    47    14 1
   50    47    16 1
   51    47    42 1
   52    48    38 1
   53    49    48 1
   54    50    49 1
   55    51    50 1
   56    52    51 1
   57    53    51 1
   58    54    53 1
   59    55    54 1
   60    56    55 1
   61    57    56 1
   62    58    56 1
   63    59    58 1
   64    60    59 1
   65    61    60 1
   66    62    61 1
   67    63    61 1
   68    64    27 1
   69    64    46 1
   70    65     5 1
   71    65    10 1
   72    65    64 1
   73    65    14 1
   74    66    23 1
   75    67    23 1
   76    68    23 1
   77    69    22 1
   78    70    22 1
   79    71    22 1
   80    72    21 1
   81    73    21 1
   82    74    21 1
   83    75    20 1
   84    76    20 1
   85    77    20 1
   86    78    15 1
   87    79    15 1
   88    80    15 1
   89    81     8 1
   90    82     8 1
   91    83     8 1
   92    84     7 1
   93    85     7 1
   94    86     6 1
   95    87     6 1
   96    88     3 1
   97    89     3 1
   98    90     1 1
   99    91     1 1
  100    92    63 1
  101    93    63 1
  102    94    63 1
  103    95    62 1
  104    96    62 1
  105    97    62 1
  106    98    60 1
  107    99    60 1
  108   100    59 1
  109   101    59 1
  110   102    58 1
  111   103    58 1
  112   104    57 1
  113   105    57 1
  114   106    57 1
  115   107    55 1
  116   108    55 1
  117   109    54 1
  118   110    54 1
  119   111    53 1
  120   112    53 1
  121   113    19 1
  122   114    18 1
  123   115    17 1
  124   116     9 1
  125   117     2 1
  126   118    52 1
  127   119    52 1
  128   120    52 1
  129   121    51 1
  130   122    50 1
  131   123    50 1
  132   124    49 1
  133   125    49 1
  134   126    48 1
  135   127    48 1
  136   128    43 1
  137   129    43 1
  138   130    43 1
  139   131    39 1
  140   132    32 1
  141   133    31 1
  142   134    61 1
  143   135    56 1
  144   136    24 1
  145   137    24 1
  146   139   138 1
  147   140   139 1
  148   141   140 1
  149   142   140 1
  150   143   142 1
  151   144   138 1
  152   144   143 1
  153   145   144 1
  154   146   145 1
  155   147   146 1
  156   148   147 1
  157   149   148 1
  158   150   149 1
  159   151   150 1
  160   152   151 1
  161   153   152 1
  162   154   138 1
  163   155   138 1
  164   156   143 1
  165   157   147 1
  166   158   151 1
  167   160   159 1
  168   161   160 1
  169   162   161 1
  170   163   161 1
  171   164   163 1
  172   165   159 1
  173   165   164 1
  174   166   165 1
  175   167   166 1
  176   168   167 1
  177   169   168 1
  178   170   169 1
  179   171   170 1
  180   172   171 1
  181   173   172 1
  182   174   153 1
  183   174   173 1
  184   175   159 1
  185   176   159 1
  186   177   164 1
  187   178   168 1
  188   179   172 1
  189   180   179 1
  190   181   179 1
  191   182   179 1
  192   183   178 1
  193   184   178 1
  194   185   178 1
  195   186   177 1
  196   187   177 1
  197   188   177 1
  198   189   176 1
  199   190   176 1
  200   191   176 1
  201   192   175 1
  202   193   175 1
  203   194   175 1
  204   195   160 1
  205   196   160 1
  206   197   158 1
  207   198   158 1
  208   199   158 1
  209   200   157 1
  210   201   157 1
  211   202   157 1
  212   203   156 1
  213   204   156 1
  214   205   156 1
  215   206   155 1
  216   207   155 1
  217   208   155 1
  218   209   154 1
  219   210   154 1
  220   211   154 1
  221   212   141 1
  222   213   146 1
  223   214   145 1
  224   215   142 1
  225   216   142 1
  226   217   174 1
  227   218   173 1
  228   219   171 1
  229   220   170 1
  230   221   169 1
  231   222   140 1
  232   223   167 1
  233   224   166 1
  234   225   165 1
  235   226   163 1
  236   227   161 1
  237   228   139 1
  238   229   139 1
  239   230   153 1
  240   231   152 1
  241   232   150 1
  242   233   149 1
  243   234   148 1
  244   235   162 1
  245   65    153 1
  246   65    174 1
@<TRIPOS>SUBSTRUCTURE
      1 CLA               1 ****               0 ****  **** 
      2 LUT             138 ****               0 ****  **** 
