@<TRIPOS>MOLECULE
Cpptraj generated mol2 file.
  235   246     2     0     0
SMALL
USER_CHARGES


@<TRIPOS>ATOM
      1 CAA        80.7073   58.9485   33.8350 a2         1 CLA     -0.055900
      2 CAB        80.8543   62.1334   43.1279 c8         1 CLA     -0.148500
      3 CAC        73.7188   58.3437   42.2397 a2         1 CLA     -0.012600
      4 CAD        76.4595   56.5227   34.9649 ck         1 CLA      0.398800
      5 NA         79.6159   59.2298   37.3167 ns         1 CLA     -0.225500
      6 CBA        81.9325   58.8508   32.8775 a2         1 CLA     -0.135000
      7 CBB        81.9888   62.0211   43.8348 c0         1 CLA     -0.395200
      8 CBC        73.7976   56.7481   42.1141 a3         1 CLA     -0.037700
      9 CBD        77.8833   57.0398   34.6841 a1         1 CLA     -0.053900
     10 NB         79.6763   60.4832   40.0073 nm         1 CLA     -0.295700
     11 OBD        75.8697   55.7610   34.1860 o2         1 CLA     -0.494600
     12 CGA        82.2085   57.4157   32.4796 c4         1 CLA      0.827000
     13 CGD        78.7502   55.8974   34.3175 c4         1 CLA      0.655300
     14 ND         76.9137   58.3289   37.9211 nm         1 CLA     -0.291600
     15 CED        79.4927   53.7531   35.1959 a3         1 CLA      0.005400
     16 CHA        78.2779   57.8583   35.8450 cs         1 CLA     -0.123800
     17 CHB        81.5905   60.3253   38.4693 aa         1 CLA     -0.291900
     18 CHC        78.3184   60.6838   42.0765 aa         1 CLA     -0.090400
     19 CHD        74.9338   58.3588   39.3698 aa         1 CLA     -0.052000
     20 CMA        82.9446   58.0289   36.9042 a3         1 CLA     -0.230700
     21 CMB        82.9860   62.1025   40.6651 a3         1 CLA     -0.180800
     22 CMC        75.8621   60.3204   44.0269 a3         1 CLA     -0.134000
     23 CMD        73.6335   56.6036   37.1346 a3         1 CLA     -0.141100
     24 C1         82.9755   55.3925   33.5784 a2         1 CLA      0.023000
     25 C1A        79.4805   58.4318   36.1617 ac         1 CLA     -0.015100
     26 C1B        81.0068   60.7177   39.6988 cr         1 CLA      0.054700
     27 C1C        77.1476   59.9668   41.7763 cn         1 CLA     -0.005600
     28 C1D        75.6012   57.9164   38.1748 ap         1 CLA     -0.047300
     29 O1A        81.8587   56.7346   31.5211 o2         1 CLA     -0.610800
     30 O1D        79.6178   55.8480   33.4718 o2         1 CLA     -0.558200
     31 C2         83.8599   54.9858   34.7807 c8         1 CLA     -0.325100
     32 C2A        80.7853   58.2992   35.2702 a1         1 CLA      0.098600
     33 C2B        81.6001   61.4696   40.7863 cb         1 CLA      0.088500
     34 C2C        75.9825   59.7191   42.6125 cb         1 CLA      0.053700
     35 C2D        75.0501   57.1153   37.1738 cb         1 CLA      0.058900
     36 O2A        83.0872   56.8773   33.4715 o1         1 CLA     -0.437200
     37 O2D        78.5770   54.9309   35.2354 o1         1 CLA     -0.357600
     38 C3         85.1074   54.5300   34.8114 c5         1 CLA      0.031200
     39 C3A        81.8066   59.0014   36.3009 a1         1 CLA      0.166800
     40 C3B        80.6499   61.5414   41.8096 cb         1 CLA      0.035000
     41 C3C        75.0757   58.9255   41.8878 cb         1 CLA     -0.089900
     42 C3D        76.0738   57.0535   36.2780 cb         1 CLA     -0.035900
     43 C4         85.5503   53.0656   34.6363 a3         1 CLA     -0.053300
     44 C4A        80.9454   59.5165   37.4723 ac         1 CLA      0.001800
     45 C4B        79.4628   60.9104   41.3171 cn         1 CLA     -0.020900
     46 C4C        75.6174   58.8802   40.5284 cr         1 CLA     -0.044400
     47 C4D        77.1509   57.8783   36.6851 c6         1 CLA     -0.046000
     48 C5         86.2485   55.3756   35.2008 a2         1 CLA     -0.070400
     49 C6         86.1606   55.8444   36.6581 a2         1 CLA      0.043900
     50 C7         87.4935   56.5264   37.1424 a2         1 CLA     -0.150000
     51 C8         87.7362   56.7418   38.7261 a1         1 CLA      0.064200
     52 C9         86.5659   57.5915   39.1906 a3         1 CLA     -0.259300
     53 C10        89.0935   57.5422   39.0239 a2         1 CLA     -0.071900
     54 C11        89.3708   57.8412   40.5108 a2         1 CLA      0.014500
     55 C12        89.0623   56.5993   41.3770 a2         1 CLA     -0.112100
     56 C13        89.6742   56.6750   42.8528 a1         1 CLA      0.089200
     57 C14        89.5842   55.3467   43.5431 a3         1 CLA     -0.239100
     58 C15        89.0338   57.7891   43.6823 a2         1 CLA     -0.102200
     59 C16        87.5386   57.6679   44.0593 a2         1 CLA      0.023900
     60 C17        87.1232   58.7199   45.1049 a2         1 CLA     -0.105700
     61 C18        85.6232   58.7673   45.6132 a1         1 CLA      0.206800
     62 C19        85.3714   59.7952   46.7227 a3         1 CLA     -0.280100
     63 C20        84.5574   58.9781   44.4594 a3         1 CLA     -0.280100
     64 NC         76.9240   59.3399   40.5590 nx         1 CLA     -0.309200
     65 MG         78.2388   59.3975   38.9236 mg         1 CLA      0.895000
     66 HMD3       73.4516   55.7702   36.3967 dc         1 CLA      0.064300
     67 HMD2       73.3568   56.2895   38.1324 dc         1 CLA      0.064300
     68 HMD1       72.9290   57.3976   36.8475 dc         1 CLA      0.064300
     69 HMC3       75.7461   61.4075   44.0499 dc         1 CLA      0.052100
     70 HMC2       75.0290   59.9931   44.6036 dc         1 CLA      0.052100
     71 HMC1       76.7139   60.0419   44.6861 dc         1 CLA      0.052100
     72 HMB3       83.1909   62.9041   41.4307 dc         1 CLA      0.063600
     73 HMB2       83.6805   61.2737   40.6437 dc         1 CLA      0.063600
     74 HMB1       82.9781   62.5953   39.7241 dc         1 CLA      0.063600
     75 HMA3       83.4928   57.6009   36.1094 dc         1 CLA      0.058300
     76 HMA2       83.6111   58.5188   37.4913 dc         1 CLA      0.058300
     77 HMA1       82.5128   57.2431   37.4614 dc         1 CLA      0.058300
     78 HED3       79.4525   53.2949   34.2034 dc         1 CLA      0.079300
     79 HED2       80.5076   54.0282   35.3588 dc         1 CLA      0.079300
     80 HED1       79.2274   52.9881   35.8497 dc         1 CLA      0.079300
     81 HBC3       72.8857   56.2420   42.4787 dc         1 CLA      0.016300
     82 HBC2       74.1101   56.5006   41.0593 dc         1 CLA      0.016300
     83 HBC1       74.7410   56.3617   42.6710 dc         1 CLA      0.016300
     84 HBB2       82.1799   62.5215   44.8028 da         1 CLA      0.183000
     85 HBB1       82.9545   61.6569   43.4412 da         1 CLA      0.183000
     86 HBA2       81.8119   59.4266   31.9517 dc         1 CLA      0.029400
     87 HBA1       82.8751   59.1746   33.4465 dc         1 CLA      0.029400
     88 HAC2       73.5788   58.3632   43.3638 dc         1 CLA      0.029300
     89 HAC1       72.9165   58.8808   41.8218 dc         1 CLA      0.029300
     90 HAA2       79.8456   58.4765   33.4042 dc         1 CLA      0.028700
     91 HAA1       80.4821   59.9933   34.0142 dc         1 CLA      0.028700
     92 H203       84.5197   60.0075   44.0998 dc         1 CLA      0.065600
     93 H202       84.8168   58.2611   43.6068 dc         1 CLA      0.065600
     94 H201       83.6097   58.7119   44.8852 dc         1 CLA      0.065600
     95 H193       85.8908   59.5278   47.6192 dc         1 CLA      0.065600
     96 H192       85.6686   60.7880   46.3283 dc         1 CLA      0.065600
     97 H191       84.3404   59.7229   46.9298 dc         1 CLA      0.065600
     98 H172       87.7383   58.4575   45.9376 dc         1 CLA      0.027600
     99 H171       87.2427   59.8009   45.0004 dc         1 CLA      0.027600
    100 H162       86.9866   57.9254   43.1972 dc         1 CLA      0.002900
    101 H161       87.2702   56.7077   44.5116 dc         1 CLA      0.002900
    102 H152       89.6326   57.7411   44.6116 dc         1 CLA      0.029100
    103 H151       89.1231   58.8105   43.2315 dc         1 CLA      0.029100
    104 H143       90.1139   54.5674   42.9707 dc         1 CLA      0.063600
    105 H142       90.0703   55.4428   44.4876 dc         1 CLA      0.063600
    106 H141       88.5224   55.0340   43.7187 dc         1 CLA      0.063600
    107 H122       87.9872   56.4233   41.4933 dc         1 CLA      0.032500
    108 H121       89.5464   55.7617   40.9450 dc         1 CLA      0.032500
    109 H112       90.4054   58.0641   40.5595 dc         1 CLA      0.006600
    110 H111       88.9193   58.7701   40.9150 dc         1 CLA      0.006600
    111 H102       89.9232   56.9648   38.5423 dc         1 CLA      0.024100
    112 H101       89.0076   58.5476   38.5540 dc         1 CLA      0.024100
    113 HHD        73.8243   58.1839   39.3935 da         1 CLA      0.174300
    114 HHC        78.3586   61.0617   43.0612 da         1 CLA      0.136800
    115 HHB        82.6267   60.6367   38.3677 da         1 CLA      0.138300
    116 HBD        77.8461   57.7708   33.8273 dc         1 CLA      0.107700
    117 HAB        79.9661   62.5686   43.6640 da         1 CLA      0.155200
    118 H93        86.5855   57.7599   40.2541 dc         1 CLA      0.069500
    119 H92        86.5911   58.5843   38.7252 dc         1 CLA      0.069500
    120 H91        85.5421   57.2489   38.9614 dc         1 CLA      0.069500
    121 H8         87.6233   55.7330   39.3008 dc         1 CLA      0.029300
    122 H72        88.3236   55.9290   36.7894 dc         1 CLA      0.044400
    123 H71        87.6885   57.5589   36.5940 dc         1 CLA      0.044400
    124 H62        85.4419   56.6873   36.6649 dc         1 CLA      0.015600
    125 H61        85.9359   54.9917   37.2733 dc         1 CLA      0.015600
    126 H52        87.1666   54.8545   35.0977 dc         1 CLA      0.033200
    127 H51        86.2078   56.2186   34.5957 dc         1 CLA      0.033200
    128 H43        84.8074   52.3944   34.1985 dc         1 CLA      0.037000
    129 H42        86.3225   53.0084   33.8534 dc         1 CLA      0.037000
    130 H41        86.0711   52.8286   35.5409 dc         1 CLA      0.037000
    131 H3A        82.4395   59.8058   35.8433 dc         1 CLA      0.041100
    132 H2A        81.0378   57.1984   35.1617 dc         1 CLA      0.083100
    133 H2         83.3358   55.0592   35.6380 da         1 CLA      0.180900
    134 H18        85.5487   57.8170   46.1622 dc         1 CLA     -0.003900
    135 H13        90.7218   56.9350   42.8186 dc         1 CLA      0.019700
    136 H12        81.9486   55.1248   33.8866 dc         1 CLA      0.120400
    137 H11        83.2736   54.9021   32.6350 dc         1 CLA      0.120400
    138 C1         70.7527   62.4399   49.7034 Z1         2 LUT      0.509236
    139 C2         69.3112   62.0966   50.4349 Z2         2 LUT     -0.434695
    140 C3         68.1803   63.1515   50.2271 Z3         2 LUT      0.437453
    141 O3         67.9094   63.7276   51.5275 S1         2 LUT     -0.547129
    142 C4         68.6102   64.2609   49.3731 Z4         2 LUT     -0.468603
    143 C5         69.4327   64.0145   48.2033 Z5         2 LUT      0.279246
    144 C6         70.4597   63.0279   48.2729 Z6         2 LUT     -0.305473
    145 C7         70.9661   62.2445   47.0761 Z7         2 LUT      0.069402
    146 C8         71.5485   62.8715   45.9968 Z8         2 LUT     -0.191631
    147 C9         72.2109   62.3086   44.8628 Z9         2 LUT      0.196698
    148 C10        73.0290   63.1479   44.1362 Y1         2 LUT     -0.208611
    149 C11        73.7376   62.8909   42.9285 Y2         2 LUT      0.030784
    150 C12        74.8155   63.6730   42.6966 Y3         2 LUT     -0.220316
    151 C13        75.7680   63.4955   41.5424 Y4         2 LUT      0.215937
    152 C14        76.9039   64.3042   41.4564 Y5         2 LUT     -0.185793
    153 C15        78.0665   64.2442   40.6388 Y6         2 LUT     -0.057835
    154 C16        71.7431   61.1357   49.5646 Y7         2 LUT     -0.405615
    155 C17        71.4866   63.2945   50.6796 Y7         2 LUT     -0.405615
    156 C18        68.7937   64.5755   46.9577 Y9         2 LUT     -0.369639
    157 C19        71.9469   60.8416   44.5609 W1         2 LUT     -0.333362
    158 C20        75.3349   62.6126   40.3800 W2         2 LUT     -0.323439
    159 C21        89.2886   66.0466   34.1610 Z1         2 LUT      0.406104
    160 C22        89.8197   65.4653   32.8195 Z2         2 LUT     -0.404965
    161 C23        89.7424   66.4473   31.6095 Z3         2 LUT      0.391255
    162 O23        90.6062   65.9468   30.5714 S1         2 LUT     -0.528210
    163 C24        88.2967   66.8736   31.3832 W6         2 LUT     -0.258361
    164 C25        87.3918   66.9165   32.4148 Z5         2 LUT      0.133546
    165 C26        87.7342   66.2403   33.8254 W8         2 LUT     -0.147008
    166 C27        87.0795   66.9518   34.9467 Z7         2 LUT      0.023843
    167 C28        86.0273   66.4916   35.6816 Z8         2 LUT     -0.216987
    168 C29        85.3127   67.1622   36.7555 Z9         2 LUT      0.206524
    169 C30        84.1393   66.5096   37.2760 Y1         2 LUT     -0.215556
    170 C31        83.2464   66.8946   38.3442 Y2         2 LUT      0.025142
    171 C32        82.3222   65.9409   38.7629 Y3         2 LUT     -0.212209
    172 C33        81.2130   66.1728   39.6997 Y4         2 LUT      0.240937
    173 C34        80.2260   65.2796   39.7583 Y5         2 LUT     -0.218862
    174 C35        79.1124   65.2314   40.7069 Y6         2 LUT     -0.023547
    175 C36        90.0766   67.2344   34.5558 Y7         2 LUT     -0.393485
    176 C37        89.4837   64.9087   35.2046 Y7         2 LUT     -0.393485
    177 C38        86.0132   67.4035   32.1441 Y9         2 LUT     -0.387526
    178 C39        85.7727   68.5214   37.1278 W1         2 LUT     -0.322618
    179 C40        81.3737   67.2654   40.7790 W2         2 LUT     -0.358472
    180 H403       81.3070   68.2516   40.3394 R7         2 LUT      0.097720
    181 H402       80.5767   67.2553   41.5284 R7         2 LUT      0.097720
    182 H401       82.3016   67.0430   41.2814 R7         2 LUT      0.097720
    183 H393       85.9807   69.1526   36.2314 R4         2 LUT      0.082505
    184 H392       85.0246   69.0579   37.6767 R4         2 LUT      0.082505
    185 H391       86.6705   68.5214   37.6505 R4         2 LUT      0.082505
    186 H383       85.3040   66.5804   32.1105 R1         2 LUT      0.104030
    187 H382       85.7163   68.1133   32.9329 R1         2 LUT      0.104030
    188 H381       85.9273   68.0056   31.2137 R1         2 LUT      0.104030
    189 H373       90.4935   64.2904   35.2245 T4         2 LUT      0.089537
    190 H372       89.4080   65.4540   36.1417 T4         2 LUT      0.089537
    191 H371       88.6332   64.1986   35.1616 T4         2 LUT      0.089537
    192 H363       91.1439   67.0777   34.6244 T4         2 LUT      0.089537
    193 H362       89.9456   67.9312   33.7490 T4         2 LUT      0.089537
    194 H361       89.7610   67.7875   35.4102 T4         2 LUT      0.089537
    195 H222       90.8771   65.2484   33.0075 U2         2 LUT      0.127376
    196 H221       89.1274   64.6235   32.6829 U2         2 LUT      0.127376
    197 H203       74.8458   63.1831   39.5583 R7         2 LUT      0.087068
    198 H202       76.2651   62.1676   39.9670 R7         2 LUT      0.087068
    199 H201       74.7955   61.8185   40.7741 R7         2 LUT      0.087068
    200 H193       72.6011   60.6312   43.7019 R4         2 LUT      0.089716
    201 H192       72.2485   60.1520   45.3710 R4         2 LUT      0.089716
    202 H191       70.9346   60.5661   44.2343 R4         2 LUT      0.089716
    203 H183       68.9758   65.6728   46.9145 R1         2 LUT      0.094572
    204 H182       69.0433   64.0957   45.9986 R1         2 LUT      0.094572
    205 H181       67.6825   64.5251   47.0784 R1         2 LUT      0.094572
    206 H173       71.7404   62.7587   51.6297 T4         2 LUT      0.093752
    207 H172       72.4823   63.6133   50.2969 T4         2 LUT      0.093752
    208 H171       70.8832   64.1297   50.9648 T4         2 LUT      0.093752
    209 H163       72.5367   61.1932   48.9185 T4         2 LUT      0.093752
    210 H162       72.0783   60.7025   50.5322 T4         2 LUT      0.093752
    211 H161       71.1057   60.2755   49.2037 T4         2 LUT      0.093752
    212 HO3        67.2401   63.2688   52.1030 Q1         2 LUT      0.300121
    213 H8         71.7432   63.9289   46.1149 U7         2 LUT      0.080784
    214 H7         70.9466   61.1109   47.1168 U6         2 LUT      0.042190
    215 H42        67.6836   64.7548   49.1236 U5         2 LUT      0.145166
    216 H41        69.1034   64.9719   50.0328 U5         2 LUT      0.145166
    217 H35        78.8440   65.9748   41.4812 T3         2 LUT      0.077919
    218 H34        80.2749   64.4049   39.1337 T2         2 LUT      0.073626
    219 H32        82.2849   64.9833   38.3027 T1         2 LUT      0.092510
    220 H31        83.4369   67.9082   38.7335 U9         2 LUT      0.070048
    221 H30        83.8916   65.5726   36.8366 U8         2 LUT      0.085442
    222 H3         67.1702   62.7162   50.0189 U3         2 LUT     -0.031596
    223 H28        85.4712   65.6186   35.2964 U7         2 LUT      0.084728
    224 H27        87.5615   67.8773   35.2240 U6         2 LUT      0.087291
    225 H26        87.3508   65.2575   33.6356 Q6         2 LUT      0.075325
    226 H24        88.1831   67.1802   30.3604 Q5         2 LUT      0.094482
    227 H23        90.3202   67.3554   31.8477 U3         2 LUT     -0.024869
    228 H22        68.9162   61.1375   50.0990 U2         2 LUT      0.127376
    229 H21        69.5246   61.9467   51.4709 U2         2 LUT      0.127376
    230 H15        78.3113   63.4679   39.9129 T3         2 LUT      0.093200
    231 H14        76.9355   65.0988   42.1843 T2         2 LUT      0.068865
    232 H12        75.0099   64.4526   43.4145 T1         2 LUT      0.095507
    233 H11        73.4444   62.1114   42.1946 U9         2 LUT      0.068930
    234 H10        73.2325   64.1375   44.4222 U8         2 LUT      0.083911
    235 H1         90.2779   65.2073   30.0893 Q1         2 LUT      0.297311
@<TRIPOS>BOND
    1     6     1 1
    2     7     2 1
    3     8     3 1
    4     9     4 1
    5    11     4 1
    6    12     6 1
    7    13     9 1
    8    16     9 1
    9    25     5 1
   10    25    16 1
   11    26    10 1
   12    26    17 1
   13    27    18 1
   14    28    14 1
   15    28    19 1
   16    29    12 1
   17    30    13 1
   18    31    24 1
   19    32     1 1
   20    32    25 1
   21    33    21 1
   22    33    26 1
   23    34    22 1
   24    34    27 1
   25    35    23 1
   26    35    28 1
   27    36    12 1
   28    36    24 1
   29    37    13 1
   30    37    15 1
   31    38    31 1
   32    39    20 1
   33    39    32 1
   34    40     2 1
   35    40    33 1
   36    41     3 1
   37    41    34 1
   38    42     4 1
   39    42    35 1
   40    43    38 1
   41    44     5 1
   42    44    17 1
   43    44    39 1
   44    45    10 1
   45    45    18 1
   46    45    40 1
   47    46    19 1
   48    46    41 1
   49    47    14 1
   50    47    16 1
   51    47    42 1
   52    48    38 1
   53    49    48 1
   54    50    49 1
   55    51    50 1
   56    52    51 1
   57    53    51 1
   58    54    53 1
   59    55    54 1
   60    56    55 1
   61    57    56 1
   62    58    56 1
   63    59    58 1
   64    60    59 1
   65    61    60 1
   66    62    61 1
   67    63    61 1
   68    64    27 1
   69    64    46 1
   70    65     5 1
   71    65    10 1
   72    65    64 1
   73    65    14 1
   74    66    23 1
   75    67    23 1
   76    68    23 1
   77    69    22 1
   78    70    22 1
   79    71    22 1
   80    72    21 1
   81    73    21 1
   82    74    21 1
   83    75    20 1
   84    76    20 1
   85    77    20 1
   86    78    15 1
   87    79    15 1
   88    80    15 1
   89    81     8 1
   90    82     8 1
   91    83     8 1
   92    84     7 1
   93    85     7 1
   94    86     6 1
   95    87     6 1
   96    88     3 1
   97    89     3 1
   98    90     1 1
   99    91     1 1
  100    92    63 1
  101    93    63 1
  102    94    63 1
  103    95    62 1
  104    96    62 1
  105    97    62 1
  106    98    60 1
  107    99    60 1
  108   100    59 1
  109   101    59 1
  110   102    58 1
  111   103    58 1
  112   104    57 1
  113   105    57 1
  114   106    57 1
  115   107    55 1
  116   108    55 1
  117   109    54 1
  118   110    54 1
  119   111    53 1
  120   112    53 1
  121   113    19 1
  122   114    18 1
  123   115    17 1
  124   116     9 1
  125   117     2 1
  126   118    52 1
  127   119    52 1
  128   120    52 1
  129   121    51 1
  130   122    50 1
  131   123    50 1
  132   124    49 1
  133   125    49 1
  134   126    48 1
  135   127    48 1
  136   128    43 1
  137   129    43 1
  138   130    43 1
  139   131    39 1
  140   132    32 1
  141   133    31 1
  142   134    61 1
  143   135    56 1
  144   136    24 1
  145   137    24 1
  146   139   138 1
  147   140   139 1
  148   141   140 1
  149   142   140 1
  150   143   142 1
  151   144   138 1
  152   144   143 1
  153   145   144 1
  154   146   145 1
  155   147   146 1
  156   148   147 1
  157   149   148 1
  158   150   149 1
  159   151   150 1
  160   152   151 1
  161   153   152 1
  162   154   138 1
  163   155   138 1
  164   156   143 1
  165   157   147 1
  166   158   151 1
  167   160   159 1
  168   161   160 1
  169   162   161 1
  170   163   161 1
  171   164   163 1
  172   165   159 1
  173   165   164 1
  174   166   165 1
  175   167   166 1
  176   168   167 1
  177   169   168 1
  178   170   169 1
  179   171   170 1
  180   172   171 1
  181   173   172 1
  182   174   153 1
  183   174   173 1
  184   175   159 1
  185   176   159 1
  186   177   164 1
  187   178   168 1
  188   179   172 1
  189   180   179 1
  190   181   179 1
  191   182   179 1
  192   183   178 1
  193   184   178 1
  194   185   178 1
  195   186   177 1
  196   187   177 1
  197   188   177 1
  198   189   176 1
  199   190   176 1
  200   191   176 1
  201   192   175 1
  202   193   175 1
  203   194   175 1
  204   195   160 1
  205   196   160 1
  206   197   158 1
  207   198   158 1
  208   199   158 1
  209   200   157 1
  210   201   157 1
  211   202   157 1
  212   203   156 1
  213   204   156 1
  214   205   156 1
  215   206   155 1
  216   207   155 1
  217   208   155 1
  218   209   154 1
  219   210   154 1
  220   211   154 1
  221   212   141 1
  222   213   146 1
  223   214   145 1
  224   215   142 1
  225   216   142 1
  226   217   174 1
  227   218   173 1
  228   219   171 1
  229   220   170 1
  230   221   169 1
  231   222   140 1
  232   223   167 1
  233   224   166 1
  234   225   165 1
  235   226   163 1
  236   227   161 1
  237   228   139 1
  238   229   139 1
  239   230   153 1
  240   231   152 1
  241   232   150 1
  242   233   149 1
  243   234   148 1
  244   235   162 1
  245   65    153 1
  246   65    174 1
@<TRIPOS>SUBSTRUCTURE
      1 CLA               1 ****               0 ****  **** 
      2 LUT             138 ****               0 ****  **** 
