@<TRIPOS>MOLECULE
Cpptraj generated mol2 file.
  235   246     2     0     0
SMALL
USER_CHARGES


@<TRIPOS>ATOM
      1 CAA        79.7563   59.5415   34.1208 a2         1 CLA     -0.055900
      2 CAB        79.8087   63.1927   43.2273 c8         1 CLA     -0.148500
      3 CAC        72.6593   59.3561   42.4410 a2         1 CLA     -0.012600
      4 CAD        75.5608   56.8854   35.2782 ck         1 CLA      0.398800
      5 NA         78.7422   59.7367   37.6313 ns         1 CLA     -0.225500
      6 CBA        80.9713   59.4403   33.2784 a2         1 CLA     -0.135000
      7 CBB        81.0205   63.1506   43.8674 c0         1 CLA     -0.395200
      8 CBC        72.8353   57.8932   43.0068 a3         1 CLA     -0.037700
      9 CBD        76.9924   57.4145   35.0034 a1         1 CLA     -0.053900
     10 NB         78.5497   61.2932   40.1288 nm         1 CLA     -0.295700
     11 OBD        75.0701   55.9797   34.6709 o2         1 CLA     -0.494600
     12 CGA        81.4288   58.0103   32.8407 c4         1 CLA      0.827000
     13 CGD        77.9355   56.2694   34.6999 c4         1 CLA      0.655300
     14 ND         75.9302   58.8362   38.2381 nm         1 CLA     -0.291600
     15 CED        78.9132   54.2760   35.5093 a3         1 CLA      0.005400
     16 CHA        77.3172   58.2697   36.1828 cs         1 CLA     -0.123800
     17 CHB        80.4934   61.1227   38.5915 aa         1 CLA     -0.291900
     18 CHC        77.2304   61.6326   42.2389 aa         1 CLA     -0.090400
     19 CHD        74.0362   58.8094   39.7329 aa         1 CLA     -0.052000
     20 CMA        82.0270   58.9833   37.0419 a3         1 CLA     -0.230700
     21 CMB        81.8101   62.9498   40.7456 a3         1 CLA     -0.180800
     22 CMC        74.8163   61.1077   44.2377 a3         1 CLA     -0.134000
     23 CMD        72.7699   56.8050   37.5428 a3         1 CLA     -0.141100
     24 C1         82.3167   55.9542   33.6084 a2         1 CLA      0.023000
     25 C1A        78.5157   59.0096   36.4387 ac         1 CLA     -0.015100
     26 C1B        79.8385   61.5923   39.7285 cr         1 CLA      0.054700
     27 C1C        76.0123   60.9140   41.9251 cn         1 CLA     -0.005600
     28 C1D        74.6611   58.3903   38.5942 ap         1 CLA     -0.047300
     29 O1A        81.3605   57.6312   31.6930 o2         1 CLA     -0.610800
     30 O1D        78.6793   56.1967   33.7385 o2         1 CLA     -0.558200
     31 C2         83.2289   55.2363   34.6307 c8         1 CLA     -0.325100
     32 C2A        79.8836   58.9755   35.6187 a1         1 CLA      0.098600
     33 C2B        80.4066   62.3745   40.8076 cb         1 CLA      0.088500
     34 C2C        74.8791   60.6787   42.7961 cb         1 CLA      0.053700
     35 C2D        74.1124   57.5434   37.5717 cb         1 CLA      0.058900
     36 O2A        82.0547   57.3630   33.9030 o1         1 CLA     -0.437200
     37 O2D        77.9407   55.2797   35.6984 o1         1 CLA     -0.357600
     38 C3         84.0469   54.1918   34.5005 c5         1 CLA      0.031200
     39 C3A        80.8627   59.7806   36.4794 a1         1 CLA      0.166800
     40 C3B        79.5092   62.5309   41.8808 cb         1 CLA      0.035000
     41 C3C        73.9819   59.9445   41.9999 cb         1 CLA     -0.089900
     42 C3D        75.1487   57.4767   36.5929 cb         1 CLA     -0.035900
     43 C4         83.3371   52.8862   34.4798 a3         1 CLA     -0.053300
     44 C4A        80.0017   60.2368   37.6603 ac         1 CLA      0.001800
     45 C4B        78.3314   61.8186   41.3874 cn         1 CLA     -0.020900
     46 C4C        74.5953   59.6366   40.7544 cr         1 CLA     -0.044400
     47 C4D        76.2188   58.1959   37.0503 c6         1 CLA     -0.046000
     48 C5         85.5419   54.3601   34.2040 a2         1 CLA     -0.070400
     49 C6         86.2050   55.5426   34.9025 a2         1 CLA      0.043900
     50 C7         86.2011   55.5011   36.4450 a2         1 CLA     -0.150000
     51 C8         86.6827   56.8904   37.1243 a1         1 CLA      0.064200
     52 C9         88.0797   57.4514   36.7058 a3         1 CLA     -0.259300
     53 C10        86.5737   56.7679   38.7216 a2         1 CLA     -0.071900
     54 C11        87.0309   58.1038   39.5343 a2         1 CLA      0.014500
     55 C12        86.8184   57.9299   41.0506 a2         1 CLA     -0.112100
     56 C13        86.5279   59.3067   41.8779 a1         1 CLA      0.089200
     57 C14        87.7241   60.2943   41.7720 a3         1 CLA     -0.239100
     58 C15        86.3809   58.9395   43.4759 a2         1 CLA     -0.102200
     59 C16        85.7212   60.1059   44.2509 a2         1 CLA      0.023900
     60 C17        85.7652   59.9500   45.7443 a2         1 CLA     -0.105700
     61 C18        85.1832   60.9610   46.7305 a1         1 CLA      0.206800
     62 C19        83.6011   60.9196   46.8141 a3         1 CLA     -0.280100
     63 C20        85.8902   60.9445   48.1286 a3         1 CLA     -0.280100
     64 NC         75.8574   60.1830   40.7512 nx         1 CLA     -0.309200
     65 MG         77.1549   60.1558   39.0990 mg         1 CLA      0.895000
     66 HMD3       72.5797   56.3409   36.5514 dc         1 CLA      0.064300
     67 HMD2       72.8712   55.9994   38.2697 dc         1 CLA      0.064300
     68 HMD1       71.9699   57.5273   37.6067 dc         1 CLA      0.064300
     69 HMC3       75.1087   62.1304   44.2486 dc         1 CLA      0.052100
     70 HMC2       73.7694   61.0691   44.4941 dc         1 CLA      0.052100
     71 HMC1       75.3912   60.4521   44.8476 dc         1 CLA      0.052100
     72 HMB3       82.5016   62.1015   40.7276 dc         1 CLA      0.063600
     73 HMB2       81.7767   63.4250   39.7176 dc         1 CLA      0.063600
     74 HMB1       82.0243   63.7076   41.5607 dc         1 CLA      0.063600
     75 HMA3       81.6134   58.0413   37.3979 dc         1 CLA      0.058300
     76 HMA2       82.8366   58.8735   36.2930 dc         1 CLA      0.058300
     77 HMA1       82.4298   59.5377   37.9080 dc         1 CLA      0.058300
     78 HED3       79.8867   54.7376   35.6939 dc         1 CLA      0.079300
     79 HED2       78.6839   53.4647   36.2142 dc         1 CLA      0.079300
     80 HED1       78.7752   53.8100   34.5200 dc         1 CLA      0.079300
     81 HBC3       73.7030   57.8794   43.6963 dc         1 CLA      0.016300
     82 HBC2       71.9716   57.4941   43.5024 dc         1 CLA      0.016300
     83 HBC1       73.0885   57.1937   42.2424 dc         1 CLA      0.016300
     84 HBB2       81.0904   63.5061   44.9637 da         1 CLA      0.183000
     85 HBB1       81.8725   62.5838   43.4349 da         1 CLA      0.183000
     86 HBA2       80.8096   60.1579   32.4615 dc         1 CLA      0.029400
     87 HBA1       81.7799   59.8219   33.9053 dc         1 CLA      0.029400
     88 HAC2       72.0602   60.0163   43.1227 dc         1 CLA      0.029300
     89 HAC1       71.9107   59.2092   41.5556 dc         1 CLA      0.029300
     90 HAA2       78.9900   58.9707   33.5704 dc         1 CLA      0.028700
     91 HAA1       79.4950   60.6310   34.0658 dc         1 CLA      0.028700
     92 H203       85.6012   60.0593   48.6287 dc         1 CLA      0.065600
     93 H202       86.9633   60.9979   47.9393 dc         1 CLA      0.065600
     94 H201       85.5675   61.8981   48.5877 dc         1 CLA      0.065600
     95 H193       83.2095   61.1484   45.8101 dc         1 CLA      0.065600
     96 H192       83.0831   60.0710   47.0286 dc         1 CLA      0.065600
     97 H191       83.3099   61.8766   47.3169 dc         1 CLA      0.065600
     98 H172       85.1377   59.1278   46.0521 dc         1 CLA      0.027600
     99 H171       86.7574   59.7183   46.0540 dc         1 CLA      0.027600
    100 H162       86.2119   61.0387   43.9755 dc         1 CLA      0.002900
    101 H161       84.6693   60.1402   43.9738 dc         1 CLA      0.002900
    102 H152       85.7978   58.0779   43.6328 dc         1 CLA      0.029100
    103 H151       87.3703   58.7351   43.8337 dc         1 CLA      0.029100
    104 H143       87.6889   61.1651   42.4193 dc         1 CLA      0.063600
    105 H142       88.5783   59.6748   42.0725 dc         1 CLA      0.063600
    106 H141       87.8183   60.5780   40.7438 dc         1 CLA      0.063600
    107 H122       85.8562   57.3857   41.2550 dc         1 CLA      0.032500
    108 H121       87.5945   57.3696   41.5519 dc         1 CLA      0.032500
    109 H112       88.0852   58.2863   39.4968 dc         1 CLA      0.006600
    110 H111       86.3568   58.9350   39.3321 dc         1 CLA      0.006600
    111 H102       85.5338   56.4842   38.9499 dc         1 CLA      0.024100
    112 H101       87.2789   55.9547   39.0509 dc         1 CLA      0.024100
    113 HHD        73.0275   58.4860   39.7886 da         1 CLA      0.174300
    114 HHC        77.3468   62.0950   43.2046 da         1 CLA      0.136800
    115 HHB        81.5084   61.4353   38.5153 da         1 CLA      0.138300
    116 HBD        76.8684   57.9735   34.0923 dc         1 CLA      0.107700
    117 HAB        78.9965   63.6140   43.7651 da         1 CLA      0.155200
    118 H93        88.8503   56.7069   36.9281 dc         1 CLA      0.069500
    119 H92        87.9196   57.6270   35.6671 dc         1 CLA      0.069500
    120 H91        88.3654   58.4118   37.0772 dc         1 CLA      0.069500
    121 H8         86.0620   57.7575   36.8414 dc         1 CLA      0.029300
    122 H72        85.2244   55.3214   36.8698 dc         1 CLA      0.044400
    123 H71        86.8211   54.6684   36.8099 dc         1 CLA      0.044400
    124 H62        87.2694   55.4890   34.4927 dc         1 CLA      0.015600
    125 H61        85.6841   56.4854   34.7010 dc         1 CLA      0.015600
    126 H52        86.0593   53.4168   34.5668 dc         1 CLA      0.033200
    127 H51        85.7433   54.5703   33.1462 dc         1 CLA      0.033200
    128 H43        82.2775   53.0010   34.6496 dc         1 CLA      0.037000
    129 H42        83.4166   52.2754   33.5746 dc         1 CLA      0.037000
    130 H41        83.6317   52.2030   35.3461 dc         1 CLA      0.037000
    131 H3A        81.2161   60.7287   36.0397 dc         1 CLA      0.041100
    132 H2A        80.2991   57.9881   35.4461 dc         1 CLA      0.083100
    133 H2         83.0661   55.6401   35.5627 da         1 CLA      0.180900
    134 H18        85.4212   61.9860   46.3040 dc         1 CLA     -0.003900
    135 H13        85.5632   59.7586   41.4960 dc         1 CLA      0.019700
    136 H12        81.3601   55.4794   33.4593 dc         1 CLA      0.120400
    137 H11        82.9542   55.9844   32.7363 dc         1 CLA      0.120400
    138 C1         68.7102   61.8802   49.8620 Z1         2 LUT      0.509236
    139 C2         67.2874   61.7204   50.3083 Z2         2 LUT     -0.434695
    140 C3         66.4244   62.9839   50.6234 Z3         2 LUT      0.437453
    141 O3         66.5867   63.1957   51.9958 S1         2 LUT     -0.547129
    142 C4         66.9880   64.1969   49.7803 Z4         2 LUT     -0.468603
    143 C5         67.9026   63.9049   48.6135 Z5         2 LUT      0.279246
    144 C6         68.7025   62.8678   48.6783 Z6         2 LUT     -0.305473
    145 C7         69.2435   62.3502   47.4691 Z7         2 LUT      0.069402
    146 C8         70.1420   62.9008   46.6739 Z8         2 LUT     -0.191631
    147 C9         70.6953   62.4927   45.4201 Z9         2 LUT      0.196698
    148 C10        71.7111   63.2601   44.8864 Y1         2 LUT     -0.208611
    149 C11        72.4486   63.2082   43.6355 Y2         2 LUT      0.030784
    150 C12        73.4237   64.0900   43.3638 Y3         2 LUT     -0.220316
    151 C13        74.4250   64.0986   42.3895 Y4         2 LUT      0.215937
    152 C14        75.5213   64.9643   42.4465 Y5         2 LUT     -0.185793
    153 C15        76.7151   65.0032   41.6622 Y6         2 LUT     -0.057835
    154 C16        69.3184   60.4055   49.7398 Y7         2 LUT     -0.405615
    155 C17        69.4977   62.4552   51.1274 Y7         2 LUT     -0.405615
    156 C18        67.3620   64.5354   47.3343 Y9         2 LUT     -0.369639
    157 C19        70.1745   61.1886   44.8278 W1         2 LUT     -0.333362
    158 C20        73.9445   63.6595   41.0243 W2         2 LUT     -0.323439
    159 C21        87.8999   66.5207   35.1024 Z1         2 LUT      0.406104
    160 C22        88.5858   65.9662   33.8377 Z2         2 LUT     -0.404965
    161 C23        88.5005   66.8542   32.5790 Z3         2 LUT      0.391255
    162 O23        89.0211   66.1395   31.4564 S1         2 LUT     -0.528210
    163 C24        87.1807   67.5458   32.4053 W6         2 LUT     -0.258361
    164 C25        86.2503   67.6352   33.3704 Z5         2 LUT      0.133546
    165 C26        86.4107   66.9254   34.6906 W8         2 LUT     -0.147008
    166 C27        85.5425   67.4606   35.8486 Z7         2 LUT      0.023843
    167 C28        84.3877   66.9128   36.3587 Z8         2 LUT     -0.216987
    168 C29        83.7358   67.3844   37.6221 Z9         2 LUT      0.206524
    169 C30        82.8701   66.6105   38.2076 Y1         2 LUT     -0.215556
    170 C31        82.1220   66.7982   39.4151 Y2         2 LUT      0.025142
    171 C32        80.9773   66.1643   39.7214 Y3         2 LUT     -0.212209
    172 C33        80.2368   66.2404   40.9487 Y4         2 LUT      0.240937
    173 C34        79.0115   65.6223   40.9399 Y5         2 LUT     -0.218862
    174 C35        77.9535   65.6280   41.9162 Y6         2 LUT     -0.023547
    175 C36        88.7103   67.7117   35.5364 Y7         2 LUT     -0.393485
    176 C37        88.0762   65.4234   36.1596 Y7         2 LUT     -0.393485
    177 C38        84.9037   68.3729   33.2356 Y9         2 LUT     -0.387526
    178 C39        84.2257   68.7797   38.0686 W1         2 LUT     -0.322618
    179 C40        80.6618   67.2024   42.0296 W2         2 LUT     -0.358472
    180 H403       80.6892   68.1992   41.7129 R7         2 LUT      0.097720
    181 H402       80.0404   67.2199   42.9615 R7         2 LUT      0.097720
    182 H401       81.6558   66.9883   42.3697 R7         2 LUT      0.097720
    183 H393       83.6218   69.3243   38.8427 R4         2 LUT      0.082505
    184 H392       85.1677   68.6633   38.5740 R4         2 LUT      0.082505
    185 H391       84.3578   69.5414   37.2725 R4         2 LUT      0.082505
    186 H383       84.7162   68.5986   32.1574 R1         2 LUT      0.104030
    187 H382       84.0679   67.8404   33.6383 R1         2 LUT      0.104030
    188 H381       84.8885   69.2753   33.8076 R1         2 LUT      0.104030
    189 H373       87.7373   64.4466   35.9369 T4         2 LUT      0.089537
    190 H372       89.1565   65.2246   36.4319 T4         2 LUT      0.089537
    191 H371       87.6447   65.7866   37.0844 T4         2 LUT      0.089537
    192 H363       89.7259   67.4673   35.6133 T4         2 LUT      0.089537
    193 H362       88.7034   68.5229   34.7995 T4         2 LUT      0.089537
    194 H361       88.3972   68.1483   36.4985 T4         2 LUT      0.089537
    195 H222       89.5517   65.5696   33.9274 U2         2 LUT      0.127376
    196 H221       88.1791   65.0013   33.5976 U2         2 LUT      0.127376
    197 H203       74.1301   62.6540   40.7841 R7         2 LUT      0.087068
    198 H202       72.9376   63.8724   40.8464 R7         2 LUT      0.087068
    199 H201       74.4748   64.2565   40.3195 R7         2 LUT      0.087068
    200 H193       69.0968   61.1094   44.8088 R4         2 LUT      0.089716
    201 H192       70.4617   61.0503   43.7984 R4         2 LUT      0.089716
    202 H191       70.5467   60.3425   45.4339 R4         2 LUT      0.089716
    203 H183       66.3155   64.9215   47.2717 R1         2 LUT      0.094572
    204 H182       67.9384   65.4069   47.0592 R1         2 LUT      0.094572
    205 H181       67.3912   63.8872   46.4603 R1         2 LUT      0.094572
    206 H173       69.2040   63.4848   51.4725 T4         2 LUT      0.093752
    207 H172       69.1539   61.8700   52.0071 T4         2 LUT      0.093752
    208 H171       70.5537   62.5106   51.0442 T4         2 LUT      0.093752
    209 H163       69.0009   59.8954   48.8374 T4         2 LUT      0.093752
    210 H162       70.3861   60.5671   49.6380 T4         2 LUT      0.093752
    211 H161       69.0528   59.7004   50.5203 T4         2 LUT      0.093752
    212 HO3        65.9641   62.6809   52.5146 Q1         2 LUT      0.300121
    213 H8         70.4220   63.9484   46.8958 U7         2 LUT      0.080784
    214 H7         68.8928   61.3580   47.1596 U6         2 LUT      0.042190
    215 H42        66.1336   64.8768   49.4967 U5         2 LUT      0.145166
    216 H41        67.3918   64.9705   50.4736 U5         2 LUT      0.145166
    217 H35        77.9409   66.2680   42.8545 T3         2 LUT      0.077919
    218 H34        78.6151   65.1902   39.9940 T2         2 LUT      0.073626
    219 H32        80.6596   65.4984   38.9752 T1         2 LUT      0.092510
    220 H31        82.5912   67.4947   40.0997 U9         2 LUT      0.070048
    221 H30        82.7275   65.6819   37.5869 U8         2 LUT      0.085442
    222 H3         65.3711   62.7395   50.2924 U3         2 LUT     -0.031596
    223 H28        83.8872   66.0770   35.7736 U7         2 LUT      0.084728
    224 H27        86.0284   68.2785   36.3932 U6         2 LUT      0.087291
    225 H26        85.8571   65.9728   34.5150 Q6         2 LUT      0.075325
    226 H24        87.0373   68.0815   31.4750 Q5         2 LUT      0.094482
    227 H23        89.1769   67.7307   32.8954 U3         2 LUT     -0.024869
    228 H22        66.6683   61.4004   49.4796 U2         2 LUT      0.127376
    229 H21        67.2200   61.0110   51.2094 U2         2 LUT      0.127376
    230 H15        76.6443   64.3719   40.8096 T3         2 LUT      0.093200
    231 H14        75.4290   65.6619   43.2213 T2         2 LUT      0.068865
    232 H12        73.5769   64.8757   44.1488 T1         2 LUT      0.095507
    233 H11        72.2445   62.4037   42.9901 U9         2 LUT      0.068930
    234 H10        71.9439   64.1218   45.5178 U8         2 LUT      0.083911
    235 H1         88.9895   66.6379   30.6018 Q1         2 LUT      0.297311
@<TRIPOS>BOND
    1     6     1 1
    2     7     2 1
    3     8     3 1
    4     9     4 1
    5    11     4 1
    6    12     6 1
    7    13     9 1
    8    16     9 1
    9    25     5 1
   10    25    16 1
   11    26    10 1
   12    26    17 1
   13    27    18 1
   14    28    14 1
   15    28    19 1
   16    29    12 1
   17    30    13 1
   18    31    24 1
   19    32     1 1
   20    32    25 1
   21    33    21 1
   22    33    26 1
   23    34    22 1
   24    34    27 1
   25    35    23 1
   26    35    28 1
   27    36    12 1
   28    36    24 1
   29    37    13 1
   30    37    15 1
   31    38    31 1
   32    39    20 1
   33    39    32 1
   34    40     2 1
   35    40    33 1
   36    41     3 1
   37    41    34 1
   38    42     4 1
   39    42    35 1
   40    43    38 1
   41    44     5 1
   42    44    17 1
   43    44    39 1
   44    45    10 1
   45    45    18 1
   46    45    40 1
   47    46    19 1
   48    46    41 1
   49    47    14 1
   50    47    16 1
   51    47    42 1
   52    48    38 1
   53    49    48 1
   54    50    49 1
   55    51    50 1
   56    52    51 1
   57    53    51 1
   58    54    53 1
   59    55    54 1
   60    56    55 1
   61    57    56 1
   62    58    56 1
   63    59    58 1
   64    60    59 1
   65    61    60 1
   66    62    61 1
   67    63    61 1
   68    64    27 1
   69    64    46 1
   70    65     5 1
   71    65    10 1
   72    65    64 1
   73    65    14 1
   74    66    23 1
   75    67    23 1
   76    68    23 1
   77    69    22 1
   78    70    22 1
   79    71    22 1
   80    72    21 1
   81    73    21 1
   82    74    21 1
   83    75    20 1
   84    76    20 1
   85    77    20 1
   86    78    15 1
   87    79    15 1
   88    80    15 1
   89    81     8 1
   90    82     8 1
   91    83     8 1
   92    84     7 1
   93    85     7 1
   94    86     6 1
   95    87     6 1
   96    88     3 1
   97    89     3 1
   98    90     1 1
   99    91     1 1
  100    92    63 1
  101    93    63 1
  102    94    63 1
  103    95    62 1
  104    96    62 1
  105    97    62 1
  106    98    60 1
  107    99    60 1
  108   100    59 1
  109   101    59 1
  110   102    58 1
  111   103    58 1
  112   104    57 1
  113   105    57 1
  114   106    57 1
  115   107    55 1
  116   108    55 1
  117   109    54 1
  118   110    54 1
  119   111    53 1
  120   112    53 1
  121   113    19 1
  122   114    18 1
  123   115    17 1
  124   116     9 1
  125   117     2 1
  126   118    52 1
  127   119    52 1
  128   120    52 1
  129   121    51 1
  130   122    50 1
  131   123    50 1
  132   124    49 1
  133   125    49 1
  134   126    48 1
  135   127    48 1
  136   128    43 1
  137   129    43 1
  138   130    43 1
  139   131    39 1
  140   132    32 1
  141   133    31 1
  142   134    61 1
  143   135    56 1
  144   136    24 1
  145   137    24 1
  146   139   138 1
  147   140   139 1
  148   141   140 1
  149   142   140 1
  150   143   142 1
  151   144   138 1
  152   144   143 1
  153   145   144 1
  154   146   145 1
  155   147   146 1
  156   148   147 1
  157   149   148 1
  158   150   149 1
  159   151   150 1
  160   152   151 1
  161   153   152 1
  162   154   138 1
  163   155   138 1
  164   156   143 1
  165   157   147 1
  166   158   151 1
  167   160   159 1
  168   161   160 1
  169   162   161 1
  170   163   161 1
  171   164   163 1
  172   165   159 1
  173   165   164 1
  174   166   165 1
  175   167   166 1
  176   168   167 1
  177   169   168 1
  178   170   169 1
  179   171   170 1
  180   172   171 1
  181   173   172 1
  182   174   153 1
  183   174   173 1
  184   175   159 1
  185   176   159 1
  186   177   164 1
  187   178   168 1
  188   179   172 1
  189   180   179 1
  190   181   179 1
  191   182   179 1
  192   183   178 1
  193   184   178 1
  194   185   178 1
  195   186   177 1
  196   187   177 1
  197   188   177 1
  198   189   176 1
  199   190   176 1
  200   191   176 1
  201   192   175 1
  202   193   175 1
  203   194   175 1
  204   195   160 1
  205   196   160 1
  206   197   158 1
  207   198   158 1
  208   199   158 1
  209   200   157 1
  210   201   157 1
  211   202   157 1
  212   203   156 1
  213   204   156 1
  214   205   156 1
  215   206   155 1
  216   207   155 1
  217   208   155 1
  218   209   154 1
  219   210   154 1
  220   211   154 1
  221   212   141 1
  222   213   146 1
  223   214   145 1
  224   215   142 1
  225   216   142 1
  226   217   174 1
  227   218   173 1
  228   219   171 1
  229   220   170 1
  230   221   169 1
  231   222   140 1
  232   223   167 1
  233   224   166 1
  234   225   165 1
  235   226   163 1
  236   227   161 1
  237   228   139 1
  238   229   139 1
  239   230   153 1
  240   231   152 1
  241   232   150 1
  242   233   149 1
  243   234   148 1
  244   235   162 1
  245   65    153 1
  246   65    174 1
@<TRIPOS>SUBSTRUCTURE
      1 CLA               1 ****               0 ****  **** 
      2 LUT             138 ****               0 ****  **** 
