@<TRIPOS>MOLECULE
Cpptraj generated mol2 file.
  235   246     2     0     0
SMALL
USER_CHARGES


@<TRIPOS>ATOM
      1 CAA        78.3611   57.5884   34.6461 a2         1 CLA     -0.055900
      2 CAB        77.4256   61.9743   43.3687 c8         1 CLA     -0.148500
      3 CAC        71.1454   57.1802   43.1850 a2         1 CLA     -0.012600
      4 CAD        74.3310   54.5318   36.0177 ck         1 CLA      0.398800
      5 NA         77.0579   58.0939   37.9908 ns         1 CLA     -0.225500
      6 CBA        79.7550   57.6499   33.9879 a2         1 CLA     -0.135000
      7 CBB        78.4173   61.7869   44.2498 c0         1 CLA     -0.395200
      8 CBC        71.1833   55.6386   43.1261 a3         1 CLA     -0.037700
      9 CBD        75.7219   55.1599   35.7428 a1         1 CLA     -0.053900
     10 NB         76.7208   59.6671   40.4877 nm         1 CLA     -0.295700
     11 OBD        73.8808   53.6637   35.2784 o2         1 CLA     -0.494600
     12 CGA        80.4219   56.3172   33.7778 c4         1 CLA      0.827000
     13 CGD        76.9074   54.1984   35.7166 c4         1 CLA      0.655300
     14 ND         74.3111   57.0501   38.5340 nm         1 CLA     -0.291600
     15 CED        77.8402   52.2048   36.5815 a3         1 CLA      0.005400
     16 CHA        75.9580   56.3044   36.7047 cs         1 CLA     -0.123800
     17 CHB        78.6676   59.6912   39.0106 aa         1 CLA     -0.291900
     18 CHC        75.3606   59.8735   42.5343 aa         1 CLA     -0.090400
     19 CHD        72.3161   56.8554   40.1267 aa         1 CLA     -0.052000
     20 CMA        80.5030   57.4573   37.6780 a3         1 CLA     -0.230700
     21 CMB        79.7238   61.8176   41.0365 a3         1 CLA     -0.180800
     22 CMC        73.1914   59.0906   44.6004 a3         1 CLA     -0.134000
     23 CMD        71.3622   54.7623   38.0072 a3         1 CLA     -0.141100
     24 C1         81.9453   54.7626   34.7786 a2         1 CLA      0.023000
     25 C1A        77.0996   57.1917   36.9545 ac         1 CLA     -0.015100
     26 C1B        77.9340   60.1683   40.1303 cr         1 CLA      0.054700
     27 C1C        74.2659   59.0232   42.2505 cn         1 CLA     -0.005600
     28 C1D        73.0230   56.4901   38.9273 ap         1 CLA     -0.047300
     29 O1A        80.0505   55.5240   32.9462 o2         1 CLA     -0.610800
     30 O1D        77.8121   54.2254   34.8821 o2         1 CLA     -0.558200
     31 C2         81.4629   54.0957   36.0960 c8         1 CLA     -0.325100
     32 C2A        78.4260   57.2159   36.1628 a1         1 CLA      0.098600
     33 C2B        78.4142   61.0789   41.0845 cb         1 CLA      0.088500
     34 C2C        73.2416   58.6904   43.1780 cb         1 CLA      0.053700
     35 C2D        72.6183   55.5241   37.8836 cb         1 CLA      0.058900
     36 O2A        81.3731   56.1058   34.7572 o1         1 CLA     -0.437200
     37 O2D        76.8493   53.2334   36.7278 o1         1 CLA     -0.357600
     38 C3         82.2321   53.4994   37.0099 c5         1 CLA      0.031200
     39 C3A        79.2834   58.1982   37.0051 a1         1 CLA      0.166800
     40 C3B        77.4470   61.1496   42.1167 cb         1 CLA      0.035000
     41 C3C        72.2894   57.8916   42.5024 cb         1 CLA     -0.089900
     42 C3D        73.7548   55.3263   37.0689 cb         1 CLA     -0.035900
     43 C4         82.2353   51.9635   37.0443 a3         1 CLA     -0.053300
     44 C4A        78.3037   58.7007   38.0794 ac         1 CLA      0.001800
     45 C4B        76.4126   60.2433   41.6899 cn         1 CLA     -0.020900
     46 C4C        72.8396   57.7202   41.1218 cr         1 CLA     -0.044400
     47 C4D        74.7521   56.3148   37.4398 c6         1 CLA     -0.046000
     48 C5         82.8642   54.3394   38.1229 a2         1 CLA     -0.070400
     49 C6         84.1981   55.0452   37.9138 a2         1 CLA      0.043900
     50 C7         84.7417   55.6652   39.2038 a2         1 CLA     -0.150000
     51 C8         85.7757   56.8508   39.2021 a1         1 CLA      0.064200
     52 C9         87.0748   56.2752   38.5503 a3         1 CLA     -0.259300
     53 C10        86.0681   57.4252   40.6001 a2         1 CLA     -0.071900
     54 C11        84.8935   58.1858   41.2832 a2         1 CLA      0.014500
     55 C12        85.3620   59.2267   42.3910 a2         1 CLA     -0.112100
     56 C13        86.1298   58.5947   43.5622 a1         1 CLA      0.089200
     57 C14        85.4159   57.5646   44.4013 a3         1 CLA     -0.239100
     58 C15        86.6478   59.7983   44.4286 a2         1 CLA     -0.102200
     59 C16        85.5938   60.7096   45.1117 a2         1 CLA      0.023900
     60 C17        86.1953   61.6919   46.1926 a2         1 CLA     -0.105700
     61 C18        85.0345   62.4799   46.9265 a1         1 CLA      0.206800
     62 C19        84.1388   61.6488   47.9013 a3         1 CLA     -0.280100
     63 C20        85.5351   63.7741   47.6841 a3         1 CLA     -0.280100
     64 NC         74.1047   58.3489   41.0677 nx         1 CLA     -0.309200
     65 MG         75.5148   58.4606   39.3820 mg         1 CLA      0.895000
     66 HMD3       71.3152   54.4317   39.1246 dc         1 CLA      0.064300
     67 HMD2       70.4840   55.3858   37.9316 dc         1 CLA      0.064300
     68 HMD1       71.3302   53.8943   37.3535 dc         1 CLA      0.064300
     69 HMC3       72.4700   59.8655   44.7688 dc         1 CLA      0.052100
     70 HMC2       72.9878   58.1794   45.1760 dc         1 CLA      0.052100
     71 HMC1       74.1446   59.4689   45.0313 dc         1 CLA      0.052100
     72 HMB3       79.7141   62.6012   41.8086 dc         1 CLA      0.063600
     73 HMB2       80.6379   61.1731   41.0586 dc         1 CLA      0.063600
     74 HMB1       79.8655   62.3229   40.1372 dc         1 CLA      0.063600
     75 HMA3       80.8972   58.2053   38.4149 dc         1 CLA      0.058300
     76 HMA2       80.2130   56.5234   38.1801 dc         1 CLA      0.058300
     77 HMA1       81.2589   57.3776   36.9114 dc         1 CLA      0.058300
     78 HED3       77.6987   51.5446   37.4424 dc         1 CLA      0.079300
     79 HED2       77.7062   51.5841   35.6785 dc         1 CLA      0.079300
     80 HED1       78.8550   52.6895   36.5344 dc         1 CLA      0.079300
     81 HBC3       71.9680   55.2146   43.6902 dc         1 CLA      0.016300
     82 HBC2       70.2965   55.2965   43.6273 dc         1 CLA      0.016300
     83 HBC1       71.3570   55.2416   42.1060 dc         1 CLA      0.016300
     84 HBB2       78.4312   62.3149   45.1526 da         1 CLA      0.183000
     85 HBB1       79.3998   61.2415   44.0001 da         1 CLA      0.183000
     86 HBA2       79.8578   58.1612   33.0529 dc         1 CLA      0.029400
     87 HBA1       80.4467   58.1972   34.6112 dc         1 CLA      0.029400
     88 HAC2       70.8906   57.4998   44.2308 dc         1 CLA      0.029300
     89 HAC1       70.2465   57.3862   42.6825 dc         1 CLA      0.029300
     90 HAA2       77.8072   56.7138   34.1789 dc         1 CLA      0.028700
     91 HAA1       77.9445   58.6202   34.5650 dc         1 CLA      0.028700
     92 H203       84.7613   64.2549   48.2771 dc         1 CLA      0.065600
     93 H202       86.3265   63.4149   48.3194 dc         1 CLA      0.065600
     94 H201       85.8918   64.4314   46.8852 dc         1 CLA      0.065600
     95 H193       84.6420   61.3162   48.7861 dc         1 CLA      0.065600
     96 H192       83.2613   62.2325   48.1229 dc         1 CLA      0.065600
     97 H191       83.7788   60.7956   47.3801 dc         1 CLA      0.065600
     98 H172       86.5970   61.1416   47.0389 dc         1 CLA      0.027600
     99 H171       86.9226   62.3031   45.7180 dc         1 CLA      0.027600
    100 H162       85.2010   61.3528   44.3193 dc         1 CLA      0.002900
    101 H161       84.9007   60.1663   45.7245 dc         1 CLA      0.002900
    102 H152       87.2312   59.3595   45.2298 dc         1 CLA      0.029100
    103 H151       87.3467   60.4240   43.8577 dc         1 CLA      0.029100
    104 H143       85.1610   56.6316   43.7869 dc         1 CLA      0.063600
    105 H142       86.1353   57.2940   45.1695 dc         1 CLA      0.063600
    106 H141       84.4848   57.9599   44.7872 dc         1 CLA      0.063600
    107 H122       85.9694   60.0052   41.9237 dc         1 CLA      0.032500
    108 H121       84.4273   59.5945   42.7518 dc         1 CLA      0.032500
    109 H112       84.4307   58.8594   40.5326 dc         1 CLA      0.006600
    110 H111       84.1522   57.4481   41.6206 dc         1 CLA      0.006600
    111 H102       86.3427   56.6169   41.2618 dc         1 CLA      0.024100
    112 H101       86.8394   58.2246   40.4747 dc         1 CLA      0.024100
    113 HHD        71.2513   56.5097   40.2830 da         1 CLA      0.174300
    114 HHC        75.3252   60.3163   43.5639 da         1 CLA      0.136800
    115 HHB        79.7238   59.9449   39.0243 da         1 CLA      0.138300
    116 HBD        75.6260   55.6711   34.8062 dc         1 CLA      0.107700
    117 HAB        76.5264   62.5434   43.7219 da         1 CLA      0.155200
    118 H93        86.9658   56.0846   37.4993 dc         1 CLA      0.069500
    119 H92        87.8578   56.9504   38.7237 dc         1 CLA      0.069500
    120 H91        87.4369   55.3546   38.9343 dc         1 CLA      0.069500
    121 H8         85.4481   57.6098   38.4724 dc         1 CLA      0.029300
    122 H72        83.8268   56.0330   39.5937 dc         1 CLA      0.044400
    123 H71        85.1276   54.7762   39.8082 dc         1 CLA      0.044400
    124 H62        84.8823   54.3599   37.5023 dc         1 CLA      0.015600
    125 H61        84.0219   55.8192   37.2784 dc         1 CLA      0.015600
    126 H52        81.9983   54.9701   38.3545 dc         1 CLA      0.033200
    127 H51        83.1670   53.7292   38.9621 dc         1 CLA      0.033200
    128 H43        81.7106   51.7195   36.1518 dc         1 CLA      0.037000
    129 H42        83.3002   51.5958   37.0175 dc         1 CLA      0.037000
    130 H41        81.6981   51.5418   37.9170 dc         1 CLA      0.037000
    131 H3A        79.6061   59.1143   36.4636 dc         1 CLA      0.041100
    132 H2A        78.7991   56.2010   36.2664 dc         1 CLA      0.083100
    133 H2         80.4639   54.3610   36.3741 da         1 CLA      0.180900
    134 H18        84.3713   62.8152   46.1152 dc         1 CLA     -0.003900
    135 H13        87.0045   58.2086   43.1054 dc         1 CLA      0.019700
    136 H12        81.6381   54.0477   34.0103 dc         1 CLA      0.120400
    137 H11        83.0657   54.7718   34.8851 dc         1 CLA      0.120400
    138 C1         68.5071   61.3449   50.7386 Z1         2 LUT      0.509236
    139 C2         67.1339   61.1206   51.4940 Z2         2 LUT     -0.434695
    140 C3         66.3575   62.4548   51.8302 Z3         2 LUT      0.437453
    141 O3         66.3976   62.7724   53.2402 S1         2 LUT     -0.547129
    142 C4         66.9004   63.6246   50.9926 Z4         2 LUT     -0.468603
    143 C5         67.3414   63.2325   49.5989 Z5         2 LUT      0.279246
    144 C6         68.1760   62.1670   49.4725 Z6         2 LUT     -0.305473
    145 C7         68.4822   61.5666   48.1648 Z7         2 LUT      0.069402
    146 C8         69.4022   62.1548   47.3954 Z8         2 LUT     -0.191631
    147 C9         69.7245   61.8232   45.9538 Z9         2 LUT      0.196698
    148 C10        70.7622   62.5263   45.3279 Y1         2 LUT     -0.208611
    149 C11        71.3111   62.3181   43.9132 Y2         2 LUT      0.030784
    150 C12        72.5101   62.8925   43.5255 Y3         2 LUT     -0.220316
    151 C13        73.2162   62.8343   42.3122 Y4         2 LUT      0.215937
    152 C14        74.3482   63.4941   42.3193 Y5         2 LUT     -0.185793
    153 C15        75.4030   63.6198   41.3115 Y6         2 LUT     -0.057835
    154 C16        69.0497   59.9523   50.4180 Y7         2 LUT     -0.405615
    155 C17        69.5831   62.0973   51.7340 Y7         2 LUT     -0.405615
    156 C18        66.6982   64.1072   48.5762 Y9         2 LUT     -0.369639
    157 C19        68.9228   60.8029   45.2311 W1         2 LUT     -0.333362
    158 C20        72.7218   61.9053   41.2141 W2         2 LUT     -0.323439
    159 C21        87.2717   65.0324   35.5954 Z1         2 LUT      0.406104
    160 C22        87.9705   64.6698   34.2341 Z2         2 LUT     -0.404965
    161 C23        88.0420   65.7392   33.2363 Z3         2 LUT      0.391255
    162 O23        88.8585   65.1881   32.1610 S1         2 LUT     -0.528210
    163 C24        86.6404   66.3235   33.0397 W6         2 LUT     -0.258361
    164 C25        85.5875   66.2757   33.9451 Z5         2 LUT      0.133546
    165 C26        85.7071   65.3661   35.2090 W8         2 LUT     -0.147008
    166 C27        84.9617   65.9045   36.4084 Z7         2 LUT      0.023843
    167 C28        83.8548   65.4176   37.0096 Z8         2 LUT     -0.216987
    168 C29        82.9894   65.9073   37.9687 Z9         2 LUT      0.206524
    169 C30        81.8173   65.2026   38.2732 Y1         2 LUT     -0.215556
    170 C31        80.9211   65.5606   39.3551 Y2         2 LUT      0.025142
    171 C32        79.6947   65.0061   39.5915 Y3         2 LUT     -0.212209
    172 C33        78.7582   65.1697   40.6882 Y4         2 LUT      0.240937
    173 C34        77.6029   64.4608   40.4956 Y5         2 LUT     -0.218862
    174 C35        76.4957   64.3473   41.4175 Y6         2 LUT     -0.023547
    175 C36        87.9610   66.3191   36.2757 Y7         2 LUT     -0.393485
    176 C37        87.4507   63.8479   36.5379 Y7         2 LUT     -0.393485
    177 C38        84.2735   66.8592   33.6020 Y9         2 LUT     -0.387526
    178 C39        83.4683   66.9346   38.9328 W1         2 LUT     -0.322618
    179 C40        79.1180   65.7403   42.0595 W2         2 LUT     -0.358472
    180 H403       80.1808   65.7563   42.1804 R7         2 LUT      0.097720
    181 H402       78.8223   66.7611   42.1975 R7         2 LUT      0.097720
    182 H401       78.9193   65.1461   42.9958 R7         2 LUT      0.097720
    183 H393       82.9642   67.9445   38.9656 R4         2 LUT      0.082505
    184 H392       83.3912   66.5996   39.9556 R4         2 LUT      0.082505
    185 H391       84.5294   67.1981   38.8061 R4         2 LUT      0.082505
    186 H383       83.9813   67.7293   34.2245 R1         2 LUT      0.104030
    187 H382       84.3123   67.3448   32.6087 R1         2 LUT      0.104030
    188 H381       83.5162   66.0486   33.6716 R1         2 LUT      0.104030
    189 H373       88.5315   63.7419   36.7620 T4         2 LUT      0.089537
    190 H372       87.0199   64.0796   37.5019 T4         2 LUT      0.089537
    191 H371       87.0764   62.8538   36.2273 T4         2 LUT      0.089537
    192 H363       88.9935   66.1949   36.4678 T4         2 LUT      0.089537
    193 H362       88.0196   67.1916   35.5569 T4         2 LUT      0.089537
    194 H361       87.4503   66.6396   37.1998 T4         2 LUT      0.089537
    195 H222       89.0081   64.3766   34.4410 U2         2 LUT      0.127376
    196 H221       87.3480   63.9264   33.7773 U2         2 LUT      0.127376
    197 H203       71.6743   62.1300   41.0984 R7         2 LUT      0.087068
    198 H202       73.2411   62.1050   40.2542 R7         2 LUT      0.087068
    199 H201       72.7645   60.8038   41.4062 R7         2 LUT      0.087068
    200 H193       69.5577   60.2159   44.5735 R4         2 LUT      0.089716
    201 H192       68.3564   60.1053   45.8424 R4         2 LUT      0.089716
    202 H191       68.1588   61.2054   44.4840 R4         2 LUT      0.089716
    203 H183       67.1489   64.0848   47.6383 R1         2 LUT      0.094572
    204 H182       65.7200   63.7207   48.4525 R1         2 LUT      0.094572
    205 H181       66.6485   65.1342   48.9247 R1         2 LUT      0.094572
    206 H173       70.3139   62.7350   51.0986 T4         2 LUT      0.093752
    207 H172       69.1385   62.6911   52.5596 T4         2 LUT      0.093752
    208 H171       70.2583   61.3454   52.1949 T4         2 LUT      0.093752
    209 H163       68.2921   59.2880   50.0377 T4         2 LUT      0.093752
    210 H162       69.8478   59.9022   49.6632 T4         2 LUT      0.093752
    211 H161       69.4429   59.3855   51.2800 T4         2 LUT      0.093752
    212 HO3        65.7364   62.2159   53.6672 Q1         2 LUT      0.300121
    213 H8         69.9865   63.0015   47.7182 U7         2 LUT      0.080784
    214 H7         67.9805   60.7093   47.7139 U6         2 LUT      0.042190
    215 H42        66.1395   64.3877   50.8566 U5         2 LUT      0.145166
    216 H41        67.7092   64.2071   51.4825 U5         2 LUT      0.145166
    217 H35        76.4424   64.9934   42.2672 T3         2 LUT      0.077919
    218 H34        77.4672   63.9094   39.5337 T2         2 LUT      0.073626
    219 H32        79.2953   64.3200   38.8105 T1         2 LUT      0.092510
    220 H31        81.1285   66.3011   40.1517 U9         2 LUT      0.070048
    221 H30        81.5340   64.3411   37.6077 U8         2 LUT      0.085442
    222 H3         65.3212   62.2386   51.4424 U3         2 LUT     -0.031596
    223 H28        83.4991   64.5290   36.5809 U7         2 LUT      0.084728
    224 H27        85.4378   66.8456   36.6997 U6         2 LUT      0.087291
    225 H26        85.1488   64.5247   34.7577 Q6         2 LUT      0.075325
    226 H24        86.4803   66.8872   32.0922 Q5         2 LUT      0.094482
    227 H23        88.5918   66.4943   33.7124 U3         2 LUT     -0.024869
    228 H22        66.5203   60.5063   50.9063 U2         2 LUT      0.127376
    229 H21        67.3309   60.5716   52.4182 U2         2 LUT      0.127376
    230 H15        75.2652   62.9277   40.5219 T3         2 LUT      0.093200
    231 H14        74.6944   63.9928   43.2240 T2         2 LUT      0.068865
    232 H12        73.0009   63.4130   44.2706 T1         2 LUT      0.095507
    233 H11        70.8039   61.6292   43.1465 U9         2 LUT      0.068930
    234 H10        71.1798   63.3059   45.9612 U8         2 LUT      0.083911
    235 H1         88.3962   64.7311   31.4240 Q1         2 LUT      0.297311
@<TRIPOS>BOND
    1     6     1 1
    2     7     2 1
    3     8     3 1
    4     9     4 1
    5    11     4 1
    6    12     6 1
    7    13     9 1
    8    16     9 1
    9    25     5 1
   10    25    16 1
   11    26    10 1
   12    26    17 1
   13    27    18 1
   14    28    14 1
   15    28    19 1
   16    29    12 1
   17    30    13 1
   18    31    24 1
   19    32     1 1
   20    32    25 1
   21    33    21 1
   22    33    26 1
   23    34    22 1
   24    34    27 1
   25    35    23 1
   26    35    28 1
   27    36    12 1
   28    36    24 1
   29    37    13 1
   30    37    15 1
   31    38    31 1
   32    39    20 1
   33    39    32 1
   34    40     2 1
   35    40    33 1
   36    41     3 1
   37    41    34 1
   38    42     4 1
   39    42    35 1
   40    43    38 1
   41    44     5 1
   42    44    17 1
   43    44    39 1
   44    45    10 1
   45    45    18 1
   46    45    40 1
   47    46    19 1
   48    46    41 1
   49    47    14 1
   50    47    16 1
   51    47    42 1
   52    48    38 1
   53    49    48 1
   54    50    49 1
   55    51    50 1
   56    52    51 1
   57    53    51 1
   58    54    53 1
   59    55    54 1
   60    56    55 1
   61    57    56 1
   62    58    56 1
   63    59    58 1
   64    60    59 1
   65    61    60 1
   66    62    61 1
   67    63    61 1
   68    64    27 1
   69    64    46 1
   70    65     5 1
   71    65    10 1
   72    65    64 1
   73    65    14 1
   74    66    23 1
   75    67    23 1
   76    68    23 1
   77    69    22 1
   78    70    22 1
   79    71    22 1
   80    72    21 1
   81    73    21 1
   82    74    21 1
   83    75    20 1
   84    76    20 1
   85    77    20 1
   86    78    15 1
   87    79    15 1
   88    80    15 1
   89    81     8 1
   90    82     8 1
   91    83     8 1
   92    84     7 1
   93    85     7 1
   94    86     6 1
   95    87     6 1
   96    88     3 1
   97    89     3 1
   98    90     1 1
   99    91     1 1
  100    92    63 1
  101    93    63 1
  102    94    63 1
  103    95    62 1
  104    96    62 1
  105    97    62 1
  106    98    60 1
  107    99    60 1
  108   100    59 1
  109   101    59 1
  110   102    58 1
  111   103    58 1
  112   104    57 1
  113   105    57 1
  114   106    57 1
  115   107    55 1
  116   108    55 1
  117   109    54 1
  118   110    54 1
  119   111    53 1
  120   112    53 1
  121   113    19 1
  122   114    18 1
  123   115    17 1
  124   116     9 1
  125   117     2 1
  126   118    52 1
  127   119    52 1
  128   120    52 1
  129   121    51 1
  130   122    50 1
  131   123    50 1
  132   124    49 1
  133   125    49 1
  134   126    48 1
  135   127    48 1
  136   128    43 1
  137   129    43 1
  138   130    43 1
  139   131    39 1
  140   132    32 1
  141   133    31 1
  142   134    61 1
  143   135    56 1
  144   136    24 1
  145   137    24 1
  146   139   138 1
  147   140   139 1
  148   141   140 1
  149   142   140 1
  150   143   142 1
  151   144   138 1
  152   144   143 1
  153   145   144 1
  154   146   145 1
  155   147   146 1
  156   148   147 1
  157   149   148 1
  158   150   149 1
  159   151   150 1
  160   152   151 1
  161   153   152 1
  162   154   138 1
  163   155   138 1
  164   156   143 1
  165   157   147 1
  166   158   151 1
  167   160   159 1
  168   161   160 1
  169   162   161 1
  170   163   161 1
  171   164   163 1
  172   165   159 1
  173   165   164 1
  174   166   165 1
  175   167   166 1
  176   168   167 1
  177   169   168 1
  178   170   169 1
  179   171   170 1
  180   172   171 1
  181   173   172 1
  182   174   153 1
  183   174   173 1
  184   175   159 1
  185   176   159 1
  186   177   164 1
  187   178   168 1
  188   179   172 1
  189   180   179 1
  190   181   179 1
  191   182   179 1
  192   183   178 1
  193   184   178 1
  194   185   178 1
  195   186   177 1
  196   187   177 1
  197   188   177 1
  198   189   176 1
  199   190   176 1
  200   191   176 1
  201   192   175 1
  202   193   175 1
  203   194   175 1
  204   195   160 1
  205   196   160 1
  206   197   158 1
  207   198   158 1
  208   199   158 1
  209   200   157 1
  210   201   157 1
  211   202   157 1
  212   203   156 1
  213   204   156 1
  214   205   156 1
  215   206   155 1
  216   207   155 1
  217   208   155 1
  218   209   154 1
  219   210   154 1
  220   211   154 1
  221   212   141 1
  222   213   146 1
  223   214   145 1
  224   215   142 1
  225   216   142 1
  226   217   174 1
  227   218   173 1
  228   219   171 1
  229   220   170 1
  230   221   169 1
  231   222   140 1
  232   223   167 1
  233   224   166 1
  234   225   165 1
  235   226   163 1
  236   227   161 1
  237   228   139 1
  238   229   139 1
  239   230   153 1
  240   231   152 1
  241   232   150 1
  242   233   149 1
  243   234   148 1
  244   235   162 1
  245   65    153 1
  246   65    174 1
@<TRIPOS>SUBSTRUCTURE
      1 CLA               1 ****               0 ****  **** 
      2 LUT             138 ****               0 ****  **** 
