@<TRIPOS>MOLECULE
Cpptraj generated mol2 file.
  235   246     2     0     0
SMALL
USER_CHARGES


@<TRIPOS>ATOM
      1 CAA        77.4741   57.6107   33.9457 a2         1 CLA     -0.055900
      2 CAB        77.5004   60.9759   43.1470 c8         1 CLA     -0.148500
      3 CAC        70.3301   57.7229   42.4272 a2         1 CLA     -0.012600
      4 CAD        73.0416   55.2481   35.1077 ck         1 CLA      0.398800
      5 NA         76.4256   57.8464   37.3617 ns         1 CLA     -0.225500
      6 CBA        78.7293   57.3240   33.0960 a2         1 CLA     -0.135000
      7 CBB        78.6245   61.5587   43.6985 c0         1 CLA     -0.395200
      8 CBC        70.0014   56.1705   42.3462 a3         1 CLA     -0.037700
      9 CBD        74.5051   55.7594   34.7323 a1         1 CLA     -0.053900
     10 NB         76.2157   59.2325   40.0105 nm         1 CLA     -0.295700
     11 OBD        72.3954   54.5051   34.4136 o2         1 CLA     -0.494600
     12 CGA        78.9955   55.9058   32.6823 c4         1 CLA      0.827000
     13 CGD        75.2917   54.5074   34.4751 c4         1 CLA      0.655300
     14 ND         73.6406   57.0692   38.0401 nm         1 CLA     -0.291600
     15 CED        76.0021   52.3334   35.2540 a3         1 CLA      0.005400
     16 CHA        74.9262   56.5752   35.9717 cs         1 CLA     -0.123800
     17 CHB        78.1434   59.1145   38.4503 aa         1 CLA     -0.291900
     18 CHC        74.8951   59.7270   42.0185 aa         1 CLA     -0.090400
     19 CHD        71.6562   57.1913   39.4920 aa         1 CLA     -0.052000
     20 CMA        79.7160   56.7431   36.8804 a3         1 CLA     -0.230700
     21 CMB        79.7554   60.4255   40.7246 a3         1 CLA     -0.180800
     22 CMC        72.4601   59.7049   43.9163 a3         1 CLA     -0.134000
     23 CMD        70.3328   55.5462   37.3604 a3         1 CLA     -0.141100
     24 C1         79.6502   53.8203   33.6374 a2         1 CLA      0.023000
     25 C1A        76.2052   57.1664   36.2564 ac         1 CLA     -0.015100
     26 C1B        77.5589   59.4997   39.6509 cr         1 CLA      0.054700
     27 C1C        73.7415   59.1144   41.6976 cn         1 CLA     -0.005600
     28 C1D        72.2785   56.7188   38.3519 ap         1 CLA     -0.047300
     29 O1A        78.8479   55.3721   31.5369 o2         1 CLA     -0.610800
     30 O1D        76.0797   54.3633   33.4581 o2         1 CLA     -0.558200
     31 C2         80.0493   53.3412   35.0229 c8         1 CLA     -0.325100
     32 C2A        77.4927   56.9455   35.4212 a1         1 CLA      0.098600
     33 C2B        78.2994   60.0110   40.7761 cb         1 CLA      0.088500
     34 C2C        72.5953   59.1010   42.5729 cb         1 CLA      0.053700
     35 C2D        71.6969   56.0076   37.3357 cb         1 CLA      0.058900
     36 O2A        79.4777   55.2935   33.7792 o1         1 CLA     -0.437200
     37 O2D        75.2611   53.5846   35.4794 o1         1 CLA     -0.357600
     38 C3         80.7415   52.1604   35.2051 c5         1 CLA      0.031200
     39 C3A        78.6045   57.6399   36.3294 a1         1 CLA      0.166800
     40 C3B        77.3772   60.2856   41.8168 cb         1 CLA      0.035000
     41 C3C        71.6394   58.2413   41.8766 cb         1 CLA     -0.089900
     42 C3D        72.7121   55.8395   36.3708 cb         1 CLA     -0.035900
     43 C4         79.9868   51.0063   35.7343 a3         1 CLA     -0.053300
     44 C4A        77.7214   58.2648   37.4311 ac         1 CLA      0.001800
     45 C4B        76.0951   59.7115   41.3293 cn         1 CLA     -0.020900
     46 C4C        72.2365   57.9740   40.5470 cr         1 CLA     -0.044400
     47 C4D        73.8207   56.5475   36.8165 c6         1 CLA     -0.046000
     48 C5         82.2101   52.1555   34.8494 a2         1 CLA     -0.070400
     49 C6         82.9698   53.3806   35.2401 a2         1 CLA      0.043900
     50 C7         83.3056   53.4697   36.6950 a2         1 CLA     -0.150000
     51 C8         84.0831   54.7080   37.2263 a1         1 CLA      0.064200
     52 C9         85.4990   54.7611   36.6694 a3         1 CLA     -0.259300
     53 C10        84.1546   54.8570   38.8019 a2         1 CLA     -0.071900
     54 C11        82.7343   55.0984   39.4749 a2         1 CLA      0.014500
     55 C12        82.9271   55.5736   40.9111 a2         1 CLA     -0.112100
     56 C13        81.7863   55.2654   41.9049 a1         1 CLA      0.089200
     57 C14        80.3663   55.5799   41.4508 a3         1 CLA     -0.239100
     58 C15        82.2559   55.7821   43.3412 a2         1 CLA     -0.102200
     59 C16        81.9944   57.1966   43.8138 a2         1 CLA      0.023900
     60 C17        83.1543   58.0478   43.4510 a2         1 CLA     -0.105700
     61 C18        83.2804   59.3779   44.1414 a1         1 CLA      0.206800
     62 C19        82.0720   60.3770   44.0582 a3         1 CLA     -0.280100
     63 C20        83.7912   59.1636   45.5384 a3         1 CLA     -0.280100
     64 NC         73.5440   58.4751   40.5414 nx         1 CLA     -0.309200
     65 MG         74.9461   58.3221   38.9236 mg         1 CLA      0.895000
     66 HMD3       69.8614   56.3154   36.7829 dc         1 CLA      0.064300
     67 HMD2       70.2363   54.6125   36.7881 dc         1 CLA      0.064300
     68 HMD1       69.8065   55.4607   38.3286 dc         1 CLA      0.064300
     69 HMC3       71.4434   59.6999   44.3229 dc         1 CLA      0.052100
     70 HMC2       73.0883   59.1500   44.6060 dc         1 CLA      0.052100
     71 HMC1       72.6289   60.7792   43.9014 dc         1 CLA      0.052100
     72 HMB3       80.2169   60.3330   41.6584 dc         1 CLA      0.063600
     73 HMB2       80.3913   59.9634   39.9119 dc         1 CLA      0.063600
     74 HMB1       79.7660   61.4850   40.5517 dc         1 CLA      0.063600
     75 HMA3       79.2458   55.7998   37.3206 dc         1 CLA      0.058300
     76 HMA2       80.3314   56.5216   35.9787 dc         1 CLA      0.058300
     77 HMA1       80.3231   57.2406   37.6534 dc         1 CLA      0.058300
     78 HED3       77.0431   52.5955   35.2917 dc         1 CLA      0.079300
     79 HED2       75.8331   51.5360   35.9389 dc         1 CLA      0.079300
     80 HED1       75.7676   51.8673   34.2691 dc         1 CLA      0.079300
     81 HBC3       70.9667   55.6123   42.4166 dc         1 CLA      0.016300
     82 HBC2       69.2123   55.7907   43.0204 dc         1 CLA      0.016300
     83 HBC1       69.8717   55.9460   41.3284 dc         1 CLA      0.016300
     84 HBB2       78.7261   61.9248   44.7875 da         1 CLA      0.183000
     85 HBB1       79.5141   61.5866   43.0562 da         1 CLA      0.183000
     86 HBA2       78.4767   57.8819   32.1333 dc         1 CLA      0.029400
     87 HBA1       79.6724   57.7025   33.5579 dc         1 CLA      0.029400
     88 HAC2       70.2864   57.8844   43.4744 dc         1 CLA      0.029300
     89 HAC1       69.5561   58.2352   41.9445 dc         1 CLA      0.029300
     90 HAA2       76.6667   57.0757   33.5036 dc         1 CLA      0.028700
     91 HAA1       77.2750   58.6380   33.9989 dc         1 CLA      0.028700
     92 H203       83.8613   60.1383   46.0428 dc         1 CLA      0.065600
     93 H202       83.0614   58.5540   46.1345 dc         1 CLA      0.065600
     94 H201       84.7446   58.4916   45.5891 dc         1 CLA      0.065600
     95 H193       81.1791   59.9631   44.6255 dc         1 CLA      0.065600
     96 H192       82.4359   61.3308   44.5635 dc         1 CLA      0.065600
     97 H191       81.8785   60.5518   42.9699 dc         1 CLA      0.065600
     98 H172       84.0934   57.4910   43.6516 dc         1 CLA      0.027600
     99 H171       82.9856   58.1511   42.3969 dc         1 CLA      0.027600
    100 H162       81.0835   57.5070   43.3044 dc         1 CLA      0.002900
    101 H161       81.7581   57.2684   44.8709 dc         1 CLA      0.002900
    102 H152       81.6013   55.2637   43.9893 dc         1 CLA      0.029100
    103 H151       83.1813   55.3914   43.6346 dc         1 CLA      0.029100
    104 H143       80.2489   55.1753   40.4709 dc         1 CLA      0.063600
    105 H142       79.6868   55.0867   42.1010 dc         1 CLA      0.063600
    106 H141       80.2064   56.6412   41.4753 dc         1 CLA      0.063600
    107 H122       83.7545   55.0130   41.2731 dc         1 CLA      0.032500
    108 H121       83.2044   56.6378   40.9452 dc         1 CLA      0.032500
    109 H112       82.1856   55.9451   39.0220 dc         1 CLA      0.006600
    110 H111       82.1871   54.2039   39.3741 dc         1 CLA      0.006600
    111 H102       84.6197   53.9397   39.1104 dc         1 CLA      0.024100
    112 H101       84.8614   55.6632   38.9732 dc         1 CLA      0.024100
    113 HHD        70.5413   57.1240   39.6780 da         1 CLA      0.174300
    114 HHC        74.9167   60.1495   42.9956 da         1 CLA      0.136800
    115 HHB        79.1592   59.4514   38.2947 da         1 CLA      0.138300
    116 HBD        74.4755   56.3112   33.8185 dc         1 CLA      0.107700
    117 HAB        76.5675   61.0373   43.7623 da         1 CLA      0.155200
    118 H93        85.8746   55.7514   36.9652 dc         1 CLA      0.069500
    119 H92        86.0738   53.9124   37.1181 dc         1 CLA      0.069500
    120 H91        85.5592   54.6596   35.5690 dc         1 CLA      0.069500
    121 H8         83.5926   55.5968   36.8638 dc         1 CLA      0.029300
    122 H72        82.3377   53.4269   37.1420 dc         1 CLA      0.044400
    123 H71        83.8789   52.5921   37.1212 dc         1 CLA      0.044400
    124 H62        83.8629   53.3832   34.6965 dc         1 CLA      0.015600
    125 H61        82.4909   54.2409   34.8581 dc         1 CLA      0.015600
    126 H52        82.6790   51.2119   35.1642 dc         1 CLA      0.033200
    127 H51        82.1873   52.1325   33.6929 dc         1 CLA      0.033200
    128 H43        80.0680   50.1897   34.9553 dc         1 CLA      0.037000
    129 H42        80.6691   50.6713   36.5527 dc         1 CLA      0.037000
    130 H41        79.0333   51.3420   36.0353 dc         1 CLA      0.037000
    131 H3A        79.0580   58.4795   35.7920 dc         1 CLA      0.041100
    132 H2A        77.6425   55.8792   35.3534 dc         1 CLA      0.083100
    133 H2         80.1986   54.0787   35.8468 da         1 CLA      0.180900
    134 H18        84.0770   59.7931   43.5194 dc         1 CLA     -0.003900
    135 H13        81.8797   54.1790   41.9242 dc         1 CLA      0.019700
    136 H12        78.6863   53.3582   33.5021 dc         1 CLA      0.120400
    137 H11        80.4044   53.4183   32.9255 dc         1 CLA      0.120400
    138 C1         67.1323   60.7164   48.9727 Z1         2 LUT      0.509236
    139 C2         67.2796   61.8532   50.0416 Z2         2 LUT     -0.434695
    140 C3         65.9932   62.5916   50.4728 Z3         2 LUT      0.437453
    141 O3         66.2963   63.9364   50.8768 S1         2 LUT     -0.547129
    142 C4         65.0336   62.7686   49.2601 Z4         2 LUT     -0.468603
    143 C5         65.5536   62.3558   47.9745 Z5         2 LUT      0.279246
    144 C6         66.4560   61.3616   47.8084 Z6         2 LUT     -0.305473
    145 C7         67.0667   60.9791   46.5517 Z7         2 LUT      0.069402
    146 C8         68.0324   61.5668   45.8066 Z8         2 LUT     -0.191631
    147 C9         68.5873   61.2821   44.4836 Z9         2 LUT      0.196698
    148 C10        69.5614   62.0625   43.8041 Y1         2 LUT     -0.208611
    149 C11        70.1626   61.7195   42.4924 Y2         2 LUT      0.030784
    150 C12        71.2699   62.5381   42.1661 Y3         2 LUT     -0.220316
    151 C13        72.3155   62.4245   41.1923 Y4         2 LUT      0.215937
    152 C14        73.4691   63.1773   41.4928 Y5         2 LUT     -0.185793
    153 C15        74.7422   63.2174   40.8080 Y6         2 LUT     -0.057835
    154 C16        66.1510   59.6839   49.6089 Y7         2 LUT     -0.405615
    155 C17        68.4744   60.0053   48.6526 Y7         2 LUT     -0.405615
    156 C18        65.1629   63.3362   46.8771 Y9         2 LUT     -0.369639
    157 C19        67.9202   60.1108   43.8238 W1         2 LUT     -0.333362
    158 C20        72.2420   61.5752   40.0120 W2         2 LUT     -0.323439
    159 C21        86.4490   64.6010   34.9921 Z1         2 LUT      0.406104
    160 C22        87.1417   64.1218   33.6715 Z2         2 LUT     -0.404965
    161 C23        87.0194   65.0868   32.4418 Z3         2 LUT      0.391255
    162 O23        87.5099   64.1531   31.3833 S1         2 LUT     -0.528210
    163 C24        85.6540   65.6501   32.2805 W6         2 LUT     -0.258361
    164 C25        84.7211   65.6332   33.2105 Z5         2 LUT      0.133546
    165 C26        84.9469   64.9344   34.6078 W8         2 LUT     -0.147008
    166 C27        84.2170   65.4829   35.7900 Z7         2 LUT      0.023843
    167 C28        83.0838   64.9559   36.3997 Z8         2 LUT     -0.216987
    168 C29        82.2577   65.5515   37.4254 Z9         2 LUT      0.206524
    169 C30        81.2532   64.7882   37.9918 Y1         2 LUT     -0.215556
    170 C31        80.4023   64.9254   39.1294 Y2         2 LUT      0.025142
    171 C32        79.2735   64.1478   39.4630 Y3         2 LUT     -0.212209
    172 C33        78.2929   64.3565   40.5808 Y4         2 LUT      0.240937
    173 C34        77.1363   63.6623   40.5117 Y5         2 LUT     -0.218862
    174 C35        75.9245   63.7832   41.2492 Y6         2 LUT     -0.023547
    175 C36        87.1142   66.0281   35.2165 Y7         2 LUT     -0.393485
    176 C37        86.8485   63.5817   36.0670 Y7         2 LUT     -0.393485
    177 C38        83.4039   66.3679   33.0065 Y9         2 LUT     -0.387526
    178 C39        82.7462   66.8392   38.0702 W1         2 LUT     -0.322618
    179 C40        78.6035   65.5069   41.5025 W2         2 LUT     -0.358472
    180 H403       78.2992   66.4946   41.0748 R7         2 LUT      0.097720
    181 H402       78.0545   65.5093   42.4959 R7         2 LUT      0.097720
    182 H401       79.6014   65.5897   41.7933 R7         2 LUT      0.097720
    183 H393       82.0397   67.3097   38.7421 R4         2 LUT      0.082505
    184 H392       83.7007   66.7973   38.5129 R4         2 LUT      0.082505
    185 H391       82.7722   67.6232   37.2739 R4         2 LUT      0.082505
    186 H383       82.6614   65.5265   33.0561 R1         2 LUT      0.104030
    187 H382       83.1236   67.0388   33.8070 R1         2 LUT      0.104030
    188 H381       83.2653   66.8632   32.0560 R1         2 LUT      0.104030
    189 H373       86.3998   62.6435   35.8316 T4         2 LUT      0.089537
    190 H372       87.9377   63.3795   36.1327 T4         2 LUT      0.089537
    191 H371       86.5526   64.0183   37.0520 T4         2 LUT      0.089537
    192 H363       86.8106   66.7351   34.4160 T4         2 LUT      0.089537
    193 H362       86.8127   66.4178   36.1679 T4         2 LUT      0.089537
    194 H361       88.1929   65.9389   35.1867 T4         2 LUT      0.089537
    195 H222       88.1864   63.7606   33.7708 U2         2 LUT      0.127376
    196 H221       86.6137   63.2506   33.3277 U2         2 LUT      0.127376
    197 H203       71.9202   62.0468   39.0506 R7         2 LUT      0.087068
    198 H202       73.1093   61.0662   39.6739 R7         2 LUT      0.087068
    199 H201       71.5790   60.7360   40.2504 R7         2 LUT      0.087068
    200 H193       66.8522   60.1312   43.8248 R4         2 LUT      0.089716
    201 H192       68.0074   60.0104   42.7655 R4         2 LUT      0.089716
    202 H191       68.2454   59.1396   44.2064 R4         2 LUT      0.089716
    203 H183       65.9628   64.1164   46.8975 R1         2 LUT      0.094572
    204 H182       65.2004   62.7466   46.0348 R1         2 LUT      0.094572
    205 H181       64.1190   63.7205   46.9626 R1         2 LUT      0.094572
    206 H173       68.9924   59.6483   49.5077 T4         2 LUT      0.093752
    207 H172       68.3755   59.1721   47.8901 T4         2 LUT      0.093752
    208 H171       69.1478   60.7746   48.2766 T4         2 LUT      0.093752
    209 H163       66.0979   58.7710   48.9929 T4         2 LUT      0.093752
    210 H162       66.4466   59.2876   50.5643 T4         2 LUT      0.093752
    211 H161       65.1464   60.0881   49.7293 T4         2 LUT      0.093752
    212 HO3        65.7618   64.3651   51.5313 Q1         2 LUT      0.300121
    213 H8         68.4633   62.4142   46.2934 U7         2 LUT      0.080784
    214 H7         66.7104   60.0718   46.1568 U6         2 LUT      0.042190
    215 H42        64.0934   62.3051   49.5329 U5         2 LUT      0.145166
    216 H41        64.7875   63.7966   49.1866 U5         2 LUT      0.145166
    217 H35        75.8607   64.4301   42.0889 T3         2 LUT      0.077919
    218 H34        77.0797   62.9232   39.7289 T2         2 LUT      0.073626
    219 H32        78.8669   63.4562   38.7745 T1         2 LUT      0.092510
    220 H31        80.7028   65.7312   39.8709 U9         2 LUT      0.070048
    221 H30        80.9823   63.8168   37.5028 U8         2 LUT      0.085442
    222 H3         65.3463   62.0950   51.2536 U3         2 LUT     -0.031596
    223 H28        82.8928   63.9934   35.9911 U7         2 LUT      0.084728
    224 H27        84.5323   66.4840   36.0845 U6         2 LUT      0.087291
    225 H26        84.6631   63.8370   34.5259 Q6         2 LUT      0.075325
    226 H24        85.4140   66.1157   31.3821 Q5         2 LUT      0.094482
    227 H23        87.7825   65.8294   32.5237 U3         2 LUT     -0.024869
    228 H22        67.9047   61.6059   50.8723 U2         2 LUT      0.127376
    229 H21        67.7849   62.7138   49.6056 U2         2 LUT      0.127376
    230 H15        74.9648   62.5375   39.9768 T3         2 LUT      0.093200
    231 H14        73.4798   63.8066   42.3700 T2         2 LUT      0.068865
    232 H12        71.4383   63.2425   42.9435 T1         2 LUT      0.095507
    233 H11        70.0483   60.7796   41.8947 U9         2 LUT      0.068930
    234 H10        70.0277   62.8891   44.4124 U8         2 LUT      0.083911
    235 H1         87.5038   64.5292   30.4991 Q1         2 LUT      0.297311
@<TRIPOS>BOND
    1     6     1 1
    2     7     2 1
    3     8     3 1
    4     9     4 1
    5    11     4 1
    6    12     6 1
    7    13     9 1
    8    16     9 1
    9    25     5 1
   10    25    16 1
   11    26    10 1
   12    26    17 1
   13    27    18 1
   14    28    14 1
   15    28    19 1
   16    29    12 1
   17    30    13 1
   18    31    24 1
   19    32     1 1
   20    32    25 1
   21    33    21 1
   22    33    26 1
   23    34    22 1
   24    34    27 1
   25    35    23 1
   26    35    28 1
   27    36    12 1
   28    36    24 1
   29    37    13 1
   30    37    15 1
   31    38    31 1
   32    39    20 1
   33    39    32 1
   34    40     2 1
   35    40    33 1
   36    41     3 1
   37    41    34 1
   38    42     4 1
   39    42    35 1
   40    43    38 1
   41    44     5 1
   42    44    17 1
   43    44    39 1
   44    45    10 1
   45    45    18 1
   46    45    40 1
   47    46    19 1
   48    46    41 1
   49    47    14 1
   50    47    16 1
   51    47    42 1
   52    48    38 1
   53    49    48 1
   54    50    49 1
   55    51    50 1
   56    52    51 1
   57    53    51 1
   58    54    53 1
   59    55    54 1
   60    56    55 1
   61    57    56 1
   62    58    56 1
   63    59    58 1
   64    60    59 1
   65    61    60 1
   66    62    61 1
   67    63    61 1
   68    64    27 1
   69    64    46 1
   70    65     5 1
   71    65    10 1
   72    65    64 1
   73    65    14 1
   74    66    23 1
   75    67    23 1
   76    68    23 1
   77    69    22 1
   78    70    22 1
   79    71    22 1
   80    72    21 1
   81    73    21 1
   82    74    21 1
   83    75    20 1
   84    76    20 1
   85    77    20 1
   86    78    15 1
   87    79    15 1
   88    80    15 1
   89    81     8 1
   90    82     8 1
   91    83     8 1
   92    84     7 1
   93    85     7 1
   94    86     6 1
   95    87     6 1
   96    88     3 1
   97    89     3 1
   98    90     1 1
   99    91     1 1
  100    92    63 1
  101    93    63 1
  102    94    63 1
  103    95    62 1
  104    96    62 1
  105    97    62 1
  106    98    60 1
  107    99    60 1
  108   100    59 1
  109   101    59 1
  110   102    58 1
  111   103    58 1
  112   104    57 1
  113   105    57 1
  114   106    57 1
  115   107    55 1
  116   108    55 1
  117   109    54 1
  118   110    54 1
  119   111    53 1
  120   112    53 1
  121   113    19 1
  122   114    18 1
  123   115    17 1
  124   116     9 1
  125   117     2 1
  126   118    52 1
  127   119    52 1
  128   120    52 1
  129   121    51 1
  130   122    50 1
  131   123    50 1
  132   124    49 1
  133   125    49 1
  134   126    48 1
  135   127    48 1
  136   128    43 1
  137   129    43 1
  138   130    43 1
  139   131    39 1
  140   132    32 1
  141   133    31 1
  142   134    61 1
  143   135    56 1
  144   136    24 1
  145   137    24 1
  146   139   138 1
  147   140   139 1
  148   141   140 1
  149   142   140 1
  150   143   142 1
  151   144   138 1
  152   144   143 1
  153   145   144 1
  154   146   145 1
  155   147   146 1
  156   148   147 1
  157   149   148 1
  158   150   149 1
  159   151   150 1
  160   152   151 1
  161   153   152 1
  162   154   138 1
  163   155   138 1
  164   156   143 1
  165   157   147 1
  166   158   151 1
  167   160   159 1
  168   161   160 1
  169   162   161 1
  170   163   161 1
  171   164   163 1
  172   165   159 1
  173   165   164 1
  174   166   165 1
  175   167   166 1
  176   168   167 1
  177   169   168 1
  178   170   169 1
  179   171   170 1
  180   172   171 1
  181   173   172 1
  182   174   153 1
  183   174   173 1
  184   175   159 1
  185   176   159 1
  186   177   164 1
  187   178   168 1
  188   179   172 1
  189   180   179 1
  190   181   179 1
  191   182   179 1
  192   183   178 1
  193   184   178 1
  194   185   178 1
  195   186   177 1
  196   187   177 1
  197   188   177 1
  198   189   176 1
  199   190   176 1
  200   191   176 1
  201   192   175 1
  202   193   175 1
  203   194   175 1
  204   195   160 1
  205   196   160 1
  206   197   158 1
  207   198   158 1
  208   199   158 1
  209   200   157 1
  210   201   157 1
  211   202   157 1
  212   203   156 1
  213   204   156 1
  214   205   156 1
  215   206   155 1
  216   207   155 1
  217   208   155 1
  218   209   154 1
  219   210   154 1
  220   211   154 1
  221   212   141 1
  222   213   146 1
  223   214   145 1
  224   215   142 1
  225   216   142 1
  226   217   174 1
  227   218   173 1
  228   219   171 1
  229   220   170 1
  230   221   169 1
  231   222   140 1
  232   223   167 1
  233   224   166 1
  234   225   165 1
  235   226   163 1
  236   227   161 1
  237   228   139 1
  238   229   139 1
  239   230   153 1
  240   231   152 1
  241   232   150 1
  242   233   149 1
  243   234   148 1
  244   235   162 1
  245   65    153 1
  246   65    174 1
@<TRIPOS>SUBSTRUCTURE
      1 CLA               1 ****               0 ****  **** 
      2 LUT             138 ****               0 ****  **** 
