@<TRIPOS>MOLECULE
Cpptraj generated mol2 file.
  235   246     2     0     0
SMALL
USER_CHARGES


@<TRIPOS>ATOM
      1 CAA        79.3355   59.4388   34.3353 a2         1 CLA     -0.055900
      2 CAB        78.8620   62.9273   43.2629 c8         1 CLA     -0.148500
      3 CAC        72.1705   58.6662   42.5870 a2         1 CLA     -0.012600
      4 CAD        75.3719   56.2503   35.4178 ck         1 CLA      0.398800
      5 NA         78.2870   59.4373   37.6374 ns         1 CLA     -0.225500
      6 CBA        80.4936   59.5950   33.5119 a2         1 CLA     -0.135000
      7 CBB        79.5238   64.0192   43.5564 c0         1 CLA     -0.395200
      8 CBC        72.2523   57.1430   42.6193 a3         1 CLA     -0.037700
      9 CBD        76.7984   56.9643   35.0561 a1         1 CLA     -0.053900
     10 NB         77.9102   61.0412   40.1764 nm         1 CLA     -0.295700
     11 OBD        74.9358   55.3381   34.6687 o2         1 CLA     -0.494600
     12 CGA        81.3062   58.3588   33.0015 c4         1 CLA      0.827000
     13 CGD        77.8056   55.8259   34.5657 c4         1 CLA      0.655300
     14 ND         75.6161   58.3272   38.2458 nm         1 CLA     -0.291600
     15 CED        78.6217   53.5991   34.7094 a3         1 CLA      0.005400
     16 CHA        77.1105   57.9340   36.2399 cs         1 CLA     -0.123800
     17 CHB        79.8860   60.8842   38.6938 aa         1 CLA     -0.291900
     18 CHC        76.4026   61.3740   42.1276 aa         1 CLA     -0.090400
     19 CHD        73.6763   58.1813   39.7498 aa         1 CLA     -0.052000
     20 CMA        81.4353   58.3436   37.4995 a3         1 CLA     -0.230700
     21 CMB        81.2602   62.5500   40.9201 a3         1 CLA     -0.180800
     22 CMC        73.8594   60.8934   43.9587 a3         1 CLA     -0.134000
     23 CMD        72.5008   56.3546   37.2820 a3         1 CLA     -0.141100
     24 C1         82.8591   56.5906   33.5474 a2         1 CLA      0.023000
     25 C1A        78.1562   58.7323   36.5235 ac         1 CLA     -0.015100
     26 C1B        79.2081   61.3410   39.8591 cr         1 CLA      0.054700
     27 C1C        75.2573   60.6047   41.7731 cn         1 CLA     -0.005600
     28 C1D        74.3259   57.9176   38.5441 ap         1 CLA     -0.047300
     29 O1A        81.2889   57.9814   31.8356 o2         1 CLA     -0.610800
     30 O1D        78.7691   56.0637   33.8091 o2         1 CLA     -0.558200
     31 C2         84.0127   56.4488   34.5994 c8         1 CLA     -0.325100
     32 C2A        79.4934   58.6733   35.7070 a1         1 CLA      0.098600
     33 C2B        79.7784   62.1780   40.9172 cb         1 CLA      0.088500
     34 C2C        74.0506   60.3441   42.5821 cb         1 CLA      0.053700
     35 C2D        73.8536   57.0178   37.4574 cb         1 CLA      0.058900
     36 O2A        82.1090   57.7799   33.9601 o1         1 CLA     -0.437200
     37 O2D        77.7127   54.5766   35.2001 o1         1 CLA     -0.357600
     38 C3         84.5541   55.2906   35.1653 c5         1 CLA      0.031200
     39 C3A        80.4864   59.3183   36.7009 a1         1 CLA      0.166800
     40 C3B        78.7947   62.2763   41.9052 cb         1 CLA      0.035000
     41 C3C        73.3582   59.3330   41.9829 cb         1 CLA     -0.089900
     42 C3D        74.9063   56.9036   36.5663 cb         1 CLA     -0.035900
     43 C4         83.9743   54.5131   36.2365 a3         1 CLA     -0.053300
     44 C4A        79.5073   59.9969   37.6831 ac         1 CLA      0.001800
     45 C4B        77.6315   61.5078   41.4006 cn         1 CLA     -0.020900
     46 C4C        74.0675   59.0302   40.7647 cr         1 CLA     -0.044400
     47 C4D        75.9313   57.8171   37.0341 c6         1 CLA     -0.046000
     48 C5         85.8248   54.6957   34.5820 a2         1 CLA     -0.070400
     49 C6         87.2224   55.3206   34.8596 a2         1 CLA      0.043900
     50 C7         87.5973   55.5440   36.3923 a2         1 CLA     -0.150000
     51 C8         87.0055   56.8280   37.1109 a1         1 CLA      0.064200
     52 C9         87.4159   58.1878   36.3718 a3         1 CLA     -0.259300
     53 C10        87.4045   56.8306   38.6403 a2         1 CLA     -0.071900
     54 C11        86.7435   57.8982   39.4295 a2         1 CLA      0.014500
     55 C12        86.9022   57.7172   40.9323 a2         1 CLA     -0.112100
     56 C13        86.2057   58.8546   41.8549 a1         1 CLA      0.089200
     57 C14        86.8418   60.2835   41.6967 a3         1 CLA     -0.239100
     58 C15        86.3335   58.3955   43.3626 a2         1 CLA     -0.102200
     59 C16        85.4282   59.0996   44.3053 a2         1 CLA      0.023900
     60 C17        85.8769   59.0732   45.7461 a2         1 CLA     -0.105700
     61 C18        85.3580   60.1889   46.6873 a1         1 CLA      0.206800
     62 C19        83.7639   60.1385   46.6388 a3         1 CLA     -0.280100
     63 C20        85.8429   60.0110   48.1229 a3         1 CLA     -0.280100
     64 NC         75.1792   59.8516   40.6900 nx         1 CLA     -0.309200
     65 MG         76.6871   59.8234   39.0550 mg         1 CLA      0.895000
     66 HMD3       72.3023   55.5285   37.9367 dc         1 CLA      0.064300
     67 HMD2       71.7261   57.0064   37.5447 dc         1 CLA      0.064300
     68 HMD1       72.4562   55.8603   36.3589 dc         1 CLA      0.064300
     69 HMC3       72.8304   61.2208   44.0369 dc         1 CLA      0.052100
     70 HMC2       74.0601   60.2626   44.7986 dc         1 CLA      0.052100
     71 HMC1       74.5877   61.7088   44.1756 dc         1 CLA      0.052100
     72 HMB3       81.8791   61.6382   40.8569 dc         1 CLA      0.063600
     73 HMB2       81.4219   63.2107   40.1205 dc         1 CLA      0.063600
     74 HMB1       81.4671   62.9592   41.8499 dc         1 CLA      0.063600
     75 HMA3       81.8047   58.8991   38.3218 dc         1 CLA      0.058300
     76 HMA2       80.8946   57.3658   37.7035 dc         1 CLA      0.058300
     77 HMA1       82.2054   58.1406   36.7334 dc         1 CLA      0.058300
     78 HED3       78.4205   52.7056   35.1925 dc         1 CLA      0.079300
     79 HED2       78.5697   53.4238   33.6387 dc         1 CLA      0.079300
     80 HED1       79.6507   53.8296   34.9317 dc         1 CLA      0.079300
     81 HBC3       71.5342   56.6509   43.3167 dc         1 CLA      0.016300
     82 HBC2       71.8476   56.7325   41.7138 dc         1 CLA      0.016300
     83 HBC1       73.2629   56.7467   42.9420 dc         1 CLA      0.016300
     84 HBB2       79.4962   64.4924   44.5562 da         1 CLA      0.183000
     85 HBB1       80.0014   64.6075   42.8066 da         1 CLA      0.183000
     86 HBA2       80.2150   60.2241   32.6323 dc         1 CLA      0.029400
     87 HBA1       81.0700   60.2769   34.1458 dc         1 CLA      0.029400
     88 HAC2       72.0528   59.0643   43.5992 dc         1 CLA      0.029300
     89 HAC1       71.2563   58.8453   42.0384 dc         1 CLA      0.029300
     90 HAA2       78.5707   58.9933   33.7196 dc         1 CLA      0.028700
     91 HAA1       78.9351   60.3812   34.6218 dc         1 CLA      0.028700
     92 H203       86.9139   59.9824   48.1249 dc         1 CLA      0.065600
     93 H202       85.5063   60.7721   48.8212 dc         1 CLA      0.065600
     94 H201       85.4311   59.0645   48.4020 dc         1 CLA      0.065600
     95 H193       83.3740   60.5020   45.6976 dc         1 CLA      0.065600
     96 H192       83.2114   59.1801   46.7017 dc         1 CLA      0.065600
     97 H191       83.3904   60.8893   47.3799 dc         1 CLA      0.065600
     98 H172       85.6011   58.1095   46.1418 dc         1 CLA      0.027600
     99 H171       86.9677   59.0867   45.6858 dc         1 CLA      0.027600
    100 H162       85.3529   60.1353   44.0865 dc         1 CLA      0.002900
    101 H161       84.4171   58.7865   44.2457 dc         1 CLA      0.002900
    102 H152       86.0969   57.3089   43.5046 dc         1 CLA      0.029100
    103 H151       87.3499   58.6754   43.5831 dc         1 CLA      0.029100
    104 H143       86.2256   61.0314   42.1579 dc         1 CLA      0.063600
    105 H142       87.9013   60.2411   42.0036 dc         1 CLA      0.063600
    106 H141       86.9199   60.3558   40.6522 dc         1 CLA      0.063600
    107 H122       86.3688   56.8320   41.1772 dc         1 CLA      0.032500
    108 H121       87.9311   57.5485   41.2689 dc         1 CLA      0.032500
    109 H112       87.2341   58.7807   39.1490 dc         1 CLA      0.006600
    110 H111       85.6958   58.0147   39.2510 dc         1 CLA      0.006600
    111 H102       86.9132   55.9300   39.0672 dc         1 CLA      0.024100
    112 H101       88.4806   56.9163   38.8622 dc         1 CLA      0.024100
    113 HHD        72.6970   57.6971   39.8380 da         1 CLA      0.174300
    114 HHC        76.2882   61.8085   43.0833 da         1 CLA      0.136800
    115 HHB        80.9251   61.2383   38.5690 da         1 CLA      0.138300
    116 HBD        76.6499   57.5494   34.2215 dc         1 CLA      0.107700
    117 HAB        78.2303   62.4068   44.0351 da         1 CLA      0.155200
    118 H93        86.8963   59.0168   36.8059 dc         1 CLA      0.069500
    119 H92        88.5095   58.2857   36.3964 dc         1 CLA      0.069500
    120 H91        87.2185   58.1171   35.3178 dc         1 CLA      0.069500
    121 H8         85.8736   56.7891   37.2748 dc         1 CLA      0.029300
    122 H72        87.3268   54.6817   37.0251 dc         1 CLA      0.044400
    123 H71        88.6975   55.6440   36.3536 dc         1 CLA      0.044400
    124 H62        87.9510   54.6487   34.4270 dc         1 CLA      0.015600
    125 H61        87.3778   56.2163   34.3133 dc         1 CLA      0.015600
    126 H52        85.7919   53.6167   34.9038 dc         1 CLA      0.033200
    127 H51        85.5776   54.7763   33.4885 dc         1 CLA      0.033200
    128 H43        84.7270   54.4448   37.0092 dc         1 CLA      0.037000
    129 H42        83.1340   55.0864   36.6730 dc         1 CLA      0.037000
    130 H41        83.5925   53.5127   35.9279 dc         1 CLA      0.037000
    131 H3A        80.9695   60.2277   36.3221 dc         1 CLA      0.041100
    132 H2A        79.8581   57.6664   35.4808 dc         1 CLA      0.083100
    133 H2         84.2524   57.3842   35.2596 da         1 CLA      0.180900
    134 H18        85.7094   61.0601   46.2915 dc         1 CLA     -0.003900
    135 H13        85.1123   59.0245   41.6251 dc         1 CLA      0.019700
    136 H12        82.3075   55.6482   33.4157 dc         1 CLA      0.120400
    137 H11        83.4245   56.7358   32.6066 dc         1 CLA      0.120400
    138 C1         68.2790   62.1038   49.2203 Z1         2 LUT      0.509236
    139 C2         66.8288   61.9455   49.8215 Z2         2 LUT     -0.434695
    140 C3         66.1057   63.2392   50.4267 Z3         2 LUT      0.437453
    141 O3         66.7441   63.6449   51.5368 S1         2 LUT     -0.547129
    142 C4         66.4843   64.4058   49.3928 Z4         2 LUT     -0.468603
    143 C5         67.3262   64.1653   48.1340 Z5         2 LUT      0.279246
    144 C6         68.1861   63.1245   48.0575 Z6         2 LUT     -0.305473
    145 C7         68.9049   62.7339   46.8385 Z7         2 LUT      0.069402
    146 C8         69.8387   63.4770   46.2784 Z8         2 LUT     -0.191631
    147 C9         70.5212   63.1778   45.0196 Z9         2 LUT      0.196698
    148 C10        71.4824   64.0804   44.6194 Y1         2 LUT     -0.208611
    149 C11        72.2956   64.1549   43.4141 Y2         2 LUT      0.030784
    150 C12        73.3534   64.9704   43.0969 Y3         2 LUT     -0.220316
    151 C13        74.2048   64.7118   41.9466 Y4         2 LUT      0.215937
    152 C14        75.5608   65.0375   41.9934 Y5         2 LUT     -0.185793
    153 C15        76.5964   64.9174   41.0739 Y6         2 LUT     -0.057835
    154 C16        68.9255   60.7260   48.8852 Y7         2 LUT     -0.405615
    155 C17        69.2405   62.5869   50.3260 Y7         2 LUT     -0.405615
    156 C18        66.9823   65.1610   46.9808 Y9         2 LUT     -0.369639
    157 C19        70.0109   61.9265   44.2906 W1         2 LUT     -0.333362
    158 C20        73.6693   64.0093   40.7200 W2         2 LUT     -0.323439
    159 C21        88.0459   66.3027   34.6584 Z1         2 LUT      0.406104
    160 C22        88.6281   65.7254   33.3609 Z2         2 LUT     -0.404965
    161 C23        88.5402   66.7691   32.2663 Z3         2 LUT      0.391255
    162 O23        88.8301   66.0221   31.0679 S1         2 LUT     -0.528210
    163 C24        87.1950   67.4573   32.2043 W6         2 LUT     -0.258361
    164 C25        86.2816   67.4366   33.0971 Z5         2 LUT      0.133546
    165 C26        86.5094   66.4910   34.2968 W8         2 LUT     -0.147008
    166 C27        85.7059   66.8886   35.4407 Z7         2 LUT      0.023843
    167 C28        84.5735   66.4303   36.0266 Z8         2 LUT     -0.216987
    168 C29        83.9488   67.1051   37.1532 Z9         2 LUT      0.206524
    169 C30        82.8455   66.5149   37.6972 Y1         2 LUT     -0.215556
    170 C31        82.1008   66.7133   38.8935 Y2         2 LUT      0.025142
    171 C32        80.9043   66.1226   39.2160 Y3         2 LUT     -0.212209
    172 C33        79.9880   66.2233   40.3702 Y4         2 LUT      0.240937
    173 C34        78.8720   65.5058   40.3466 Y5         2 LUT     -0.218862
    174 C35        77.8079   65.5338   41.2492 Y6         2 LUT     -0.023547
    175 C36        88.8341   67.5224   35.2777 Y7         2 LUT     -0.393485
    176 C37        88.1675   65.1200   35.6617 Y7         2 LUT     -0.393485
    177 C38        84.9546   68.1297   32.9329 Y9         2 LUT     -0.387526
    178 C39        84.7261   68.2113   37.8908 W1         2 LUT     -0.322618
    179 C40        80.5398   67.1929   41.4378 W2         2 LUT     -0.358472
    180 H403       79.7500   67.5218   42.1259 R7         2 LUT      0.097720
    181 H402       81.2192   66.7841   42.1037 R7         2 LUT      0.097720
    182 H401       80.8580   68.0957   40.9272 R7         2 LUT      0.097720
    183 H393       85.7856   68.1549   37.8872 R4         2 LUT      0.082505
    184 H392       84.5043   69.2613   37.4985 R4         2 LUT      0.082505
    185 H391       84.6180   68.2863   38.9384 R4         2 LUT      0.082505
    186 H383       84.1130   67.4955   32.8252 R1         2 LUT      0.104030
    187 H382       84.6864   68.8132   33.8131 R1         2 LUT      0.104030
    188 H381       84.9445   68.8447   32.0664 R1         2 LUT      0.104030
    189 H373       87.6400   64.2421   35.2133 T4         2 LUT      0.089537
    190 H372       89.1544   64.7963   35.8999 T4         2 LUT      0.089537
    191 H371       87.7771   65.2757   36.6014 T4         2 LUT      0.089537
    192 H363       88.7533   68.2997   34.5406 T4         2 LUT      0.089537
    193 H362       88.4260   67.9453   36.2491 T4         2 LUT      0.089537
    194 H361       89.9618   67.3335   35.4166 T4         2 LUT      0.089537
    195 H222       89.6694   65.5410   33.4160 U2         2 LUT      0.127376
    196 H221       88.2228   64.7701   33.0518 U2         2 LUT      0.127376
    197 H203       72.6061   63.9416   40.5957 R7         2 LUT      0.087068
    198 H202       74.0327   64.5567   39.8266 R7         2 LUT      0.087068
    199 H201       74.1082   63.0043   40.6941 R7         2 LUT      0.087068
    200 H193       68.9237   61.8558   44.1546 R4         2 LUT      0.089716
    201 H192       70.4723   61.8513   43.3204 R4         2 LUT      0.089716
    202 H191       70.2557   60.9633   44.7658 R4         2 LUT      0.089716
    203 H183       67.6943   65.9498   46.9595 R1         2 LUT      0.094572
    204 H182       66.9876   64.6505   45.9878 R1         2 LUT      0.094572
    205 H181       65.9568   65.5269   47.2504 R1         2 LUT      0.094572
    206 H173       70.2655   62.5356   50.0102 T4         2 LUT      0.093752
    207 H172       69.0461   63.6121   50.6795 T4         2 LUT      0.093752
    208 H171       69.1882   61.9608   51.1922 T4         2 LUT      0.093752
    209 H163       68.2381   60.2308   48.1685 T4         2 LUT      0.093752
    210 H162       69.9490   60.8592   48.4847 T4         2 LUT      0.093752
    211 H161       69.0008   60.0250   49.7879 T4         2 LUT      0.093752
    212 HO3        66.4294   63.2604   52.3628 Q1         2 LUT      0.300121
    213 H8         70.1767   64.4051   46.7436 U7         2 LUT      0.080784
    214 H7         68.4909   61.8561   46.3983 U6         2 LUT      0.042190
    215 H42        65.4481   64.7762   49.0932 U5         2 LUT      0.145166
    216 H41        66.8790   65.2977   49.8824 U5         2 LUT      0.145166
    217 H35        77.9108   66.0064   42.2720 T3         2 LUT      0.077919
    218 H34        78.7040   64.9062   39.4615 T2         2 LUT      0.073626
    219 H32        80.5308   65.4256   38.5116 T1         2 LUT      0.092510
    220 H31        82.5174   67.4471   39.4821 U9         2 LUT      0.070048
    221 H30        82.4042   65.6427   37.1507 U8         2 LUT      0.085442
    222 H3         64.9837   63.0239   50.4958 U3         2 LUT     -0.031596
    223 H28        84.1684   65.5474   35.5577 U7         2 LUT      0.084728
    224 H27        86.0399   67.8756   35.7966 U6         2 LUT      0.087291
    225 H26        86.1236   65.4554   34.1538 Q6         2 LUT      0.075325
    226 H24        87.2385   68.1824   31.3744 Q5         2 LUT      0.094482
    227 H23        89.1970   67.5318   32.4348 U3         2 LUT     -0.024869
    228 H22        66.0970   61.5634   49.1190 U2         2 LUT      0.127376
    229 H21        67.0018   61.0924   50.5123 U2         2 LUT      0.127376
    230 H15        76.4989   64.3845   40.2089 T3         2 LUT      0.093200
    231 H14        75.8397   65.5635   42.8694 T2         2 LUT      0.068865
    232 H12        73.6370   65.6337   43.9152 T1         2 LUT      0.095507
    233 H11        72.0960   63.4161   42.6411 U9         2 LUT      0.068930
    234 H10        71.6598   64.9283   45.2621 U8         2 LUT      0.083911
    235 H1         89.4215   66.5795   30.4902 Q1         2 LUT      0.297311
@<TRIPOS>BOND
    1     6     1 1
    2     7     2 1
    3     8     3 1
    4     9     4 1
    5    11     4 1
    6    12     6 1
    7    13     9 1
    8    16     9 1
    9    25     5 1
   10    25    16 1
   11    26    10 1
   12    26    17 1
   13    27    18 1
   14    28    14 1
   15    28    19 1
   16    29    12 1
   17    30    13 1
   18    31    24 1
   19    32     1 1
   20    32    25 1
   21    33    21 1
   22    33    26 1
   23    34    22 1
   24    34    27 1
   25    35    23 1
   26    35    28 1
   27    36    12 1
   28    36    24 1
   29    37    13 1
   30    37    15 1
   31    38    31 1
   32    39    20 1
   33    39    32 1
   34    40     2 1
   35    40    33 1
   36    41     3 1
   37    41    34 1
   38    42     4 1
   39    42    35 1
   40    43    38 1
   41    44     5 1
   42    44    17 1
   43    44    39 1
   44    45    10 1
   45    45    18 1
   46    45    40 1
   47    46    19 1
   48    46    41 1
   49    47    14 1
   50    47    16 1
   51    47    42 1
   52    48    38 1
   53    49    48 1
   54    50    49 1
   55    51    50 1
   56    52    51 1
   57    53    51 1
   58    54    53 1
   59    55    54 1
   60    56    55 1
   61    57    56 1
   62    58    56 1
   63    59    58 1
   64    60    59 1
   65    61    60 1
   66    62    61 1
   67    63    61 1
   68    64    27 1
   69    64    46 1
   70    65     5 1
   71    65    10 1
   72    65    64 1
   73    65    14 1
   74    66    23 1
   75    67    23 1
   76    68    23 1
   77    69    22 1
   78    70    22 1
   79    71    22 1
   80    72    21 1
   81    73    21 1
   82    74    21 1
   83    75    20 1
   84    76    20 1
   85    77    20 1
   86    78    15 1
   87    79    15 1
   88    80    15 1
   89    81     8 1
   90    82     8 1
   91    83     8 1
   92    84     7 1
   93    85     7 1
   94    86     6 1
   95    87     6 1
   96    88     3 1
   97    89     3 1
   98    90     1 1
   99    91     1 1
  100    92    63 1
  101    93    63 1
  102    94    63 1
  103    95    62 1
  104    96    62 1
  105    97    62 1
  106    98    60 1
  107    99    60 1
  108   100    59 1
  109   101    59 1
  110   102    58 1
  111   103    58 1
  112   104    57 1
  113   105    57 1
  114   106    57 1
  115   107    55 1
  116   108    55 1
  117   109    54 1
  118   110    54 1
  119   111    53 1
  120   112    53 1
  121   113    19 1
  122   114    18 1
  123   115    17 1
  124   116     9 1
  125   117     2 1
  126   118    52 1
  127   119    52 1
  128   120    52 1
  129   121    51 1
  130   122    50 1
  131   123    50 1
  132   124    49 1
  133   125    49 1
  134   126    48 1
  135   127    48 1
  136   128    43 1
  137   129    43 1
  138   130    43 1
  139   131    39 1
  140   132    32 1
  141   133    31 1
  142   134    61 1
  143   135    56 1
  144   136    24 1
  145   137    24 1
  146   139   138 1
  147   140   139 1
  148   141   140 1
  149   142   140 1
  150   143   142 1
  151   144   138 1
  152   144   143 1
  153   145   144 1
  154   146   145 1
  155   147   146 1
  156   148   147 1
  157   149   148 1
  158   150   149 1
  159   151   150 1
  160   152   151 1
  161   153   152 1
  162   154   138 1
  163   155   138 1
  164   156   143 1
  165   157   147 1
  166   158   151 1
  167   160   159 1
  168   161   160 1
  169   162   161 1
  170   163   161 1
  171   164   163 1
  172   165   159 1
  173   165   164 1
  174   166   165 1
  175   167   166 1
  176   168   167 1
  177   169   168 1
  178   170   169 1
  179   171   170 1
  180   172   171 1
  181   173   172 1
  182   174   153 1
  183   174   173 1
  184   175   159 1
  185   176   159 1
  186   177   164 1
  187   178   168 1
  188   179   172 1
  189   180   179 1
  190   181   179 1
  191   182   179 1
  192   183   178 1
  193   184   178 1
  194   185   178 1
  195   186   177 1
  196   187   177 1
  197   188   177 1
  198   189   176 1
  199   190   176 1
  200   191   176 1
  201   192   175 1
  202   193   175 1
  203   194   175 1
  204   195   160 1
  205   196   160 1
  206   197   158 1
  207   198   158 1
  208   199   158 1
  209   200   157 1
  210   201   157 1
  211   202   157 1
  212   203   156 1
  213   204   156 1
  214   205   156 1
  215   206   155 1
  216   207   155 1
  217   208   155 1
  218   209   154 1
  219   210   154 1
  220   211   154 1
  221   212   141 1
  222   213   146 1
  223   214   145 1
  224   215   142 1
  225   216   142 1
  226   217   174 1
  227   218   173 1
  228   219   171 1
  229   220   170 1
  230   221   169 1
  231   222   140 1
  232   223   167 1
  233   224   166 1
  234   225   165 1
  235   226   163 1
  236   227   161 1
  237   228   139 1
  238   229   139 1
  239   230   153 1
  240   231   152 1
  241   232   150 1
  242   233   149 1
  243   234   148 1
  244   235   162 1
  245   65    153 1
  246   65    174 1
@<TRIPOS>SUBSTRUCTURE
      1 CLA               1 ****               0 ****  **** 
      2 LUT             138 ****               0 ****  **** 
