@<TRIPOS>MOLECULE
Cpptraj generated mol2 file.
  235   246     2     0     0
SMALL
USER_CHARGES


@<TRIPOS>ATOM
      1 CAA        79.1561   58.2928   34.5040 a2         1 CLA     -0.055900
      2 CAB        79.4497   62.2210   43.3437 c8         1 CLA     -0.148500
      3 CAC        72.4593   58.3172   43.1035 a2         1 CLA     -0.012600
      4 CAD        74.8805   55.8400   35.8823 ck         1 CLA      0.398800
      5 NA         78.2151   58.7967   37.8536 ns         1 CLA     -0.225500
      6 CBA        80.5013   58.1722   33.6250 a2         1 CLA     -0.135000
      7 CBB        80.6670   62.3312   43.9412 c0         1 CLA     -0.395200
      8 CBC        72.5147   56.7648   43.0687 a3         1 CLA     -0.037700
      9 CBD        76.3701   56.1545   35.6048 a1         1 CLA     -0.053900
     10 NB         78.1667   60.3043   40.3674 nm         1 CLA     -0.295700
     11 OBD        74.2139   54.9795   35.2930 o2         1 CLA     -0.494600
     12 CGA        81.0754   56.7705   33.2667 c4         1 CLA      0.827000
     13 CGD        77.2943   55.0221   35.9332 c4         1 CLA      0.655300
     14 ND         75.2267   58.1526   38.4782 nm         1 CLA     -0.291600
     15 CED        77.5466   53.0526   37.3687 a3         1 CLA      0.005400
     16 CHA        76.8074   57.3075   36.6305 cs         1 CLA     -0.123800
     17 CHB        79.9636   60.1339   38.7965 aa         1 CLA     -0.291900
     18 CHC        76.8949   60.5537   42.4026 aa         1 CLA     -0.090400
     19 CHD        73.5413   57.9720   40.1949 aa         1 CLA     -0.052000
     20 CMA        81.5433   57.8411   37.3579 a3         1 CLA     -0.230700
     21 CMB        81.4242   62.1434   40.8532 a3         1 CLA     -0.180800
     22 CMC        74.5345   60.3110   44.4363 a3         1 CLA     -0.134000
     23 CMD        72.1199   56.1084   38.0324 a3         1 CLA     -0.141100
     24 C1         82.1902   54.8550   34.0705 a2         1 CLA      0.023000
     25 C1A        78.0751   57.9284   36.8444 ac         1 CLA     -0.015100
     26 C1B        79.4131   60.5955   39.9352 cr         1 CLA      0.054700
     27 C1C        75.6813   59.9943   42.0886 cn         1 CLA     -0.005600
     28 C1D        73.9812   57.7351   38.9151 ap         1 CLA     -0.047300
     29 O1A        80.9031   56.1905   32.1621 o2         1 CLA     -0.610800
     30 O1D        78.3914   54.8775   35.3599 o2         1 CLA     -0.558200
     31 C2         82.9582   54.4801   35.2932 c8         1 CLA     -0.325100
     32 C2A        79.3836   57.8715   35.9586 a1         1 CLA      0.098600
     33 C2B        80.0460   61.4936   40.9664 cb         1 CLA      0.088500
     34 C2C        74.5602   59.8327   43.0822 cb         1 CLA      0.053700
     35 C2D        73.3974   56.8280   37.9951 cb         1 CLA      0.058900
     36 O2A        81.6382   56.1816   34.3254 o1         1 CLA     -0.437200
     37 O2D        76.8193   54.2450   36.9736 o1         1 CLA     -0.357600
     38 C3         84.0449   53.7134   35.1506 c5         1 CLA      0.031200
     39 C3A        80.3900   58.7044   36.7711 a1         1 CLA      0.166800
     40 C3B        79.1817   61.5380   42.0202 cb         1 CLA      0.035000
     41 C3C        73.6468   58.9745   42.4426 cb         1 CLA     -0.089900
     42 C3D        74.4534   56.6235   37.0326 cb         1 CLA     -0.035900
     43 C4         83.8897   52.1899   35.1247 a3         1 CLA     -0.053300
     44 C4A        79.4692   59.2827   37.8797 ac         1 CLA      0.001800
     45 C4B        78.0147   60.7979   41.5986 cn         1 CLA     -0.020900
     46 C4C        74.1856   58.7547   41.1519 cr         1 CLA     -0.044400
     47 C4D        75.5633   57.4325   37.3983 c6         1 CLA     -0.046000
     48 C5         85.4147   54.3323   34.9012 a2         1 CLA     -0.070400
     49 C6         85.7519   55.5956   35.6747 a2         1 CLA      0.043900
     50 C7         85.9827   55.2603   37.1841 a2         1 CLA     -0.150000
     51 C8         86.1585   56.5711   38.1048 a1         1 CLA      0.064200
     52 C9         87.3167   57.5637   37.6970 a3         1 CLA     -0.259300
     53 C10        86.1791   56.0602   39.5340 a2         1 CLA     -0.071900
     54 C11        85.5683   56.9730   40.5682 a2         1 CLA      0.014500
     55 C12        86.1096   56.6328   41.9452 a2         1 CLA     -0.112100
     56 C13        85.3938   57.3447   43.0886 a1         1 CLA      0.089200
     57 C14        85.4684   58.8950   43.0295 a3         1 CLA     -0.239100
     58 C15        85.8799   56.8599   44.5182 a2         1 CLA     -0.102200
     59 C16        85.0870   57.3025   45.7045 a2         1 CLA      0.023900
     60 C17        85.7047   56.8611   46.9891 a2         1 CLA     -0.105700
     61 C18        84.9822   57.4608   48.2271 a1         1 CLA      0.206800
     62 C19        83.4745   57.3285   48.1583 a3         1 CLA     -0.280100
     63 C20        85.5386   57.0905   49.6384 a3         1 CLA     -0.280100
     64 NC         75.3931   59.3823   40.9598 nx         1 CLA     -0.309200
     65 MG         76.6775   59.2600   39.2930 mg         1 CLA      0.895000
     66 HMD3       71.9476   55.4953   37.0942 dc         1 CLA      0.064300
     67 HMD2       72.1275   55.4439   38.9300 dc         1 CLA      0.064300
     68 HMD1       71.3386   56.8311   38.0841 dc         1 CLA      0.064300
     69 HMC3       73.4930   60.3991   44.8016 dc         1 CLA      0.052100
     70 HMC2       75.0127   59.5421   44.9579 dc         1 CLA      0.052100
     71 HMC1       75.0574   61.2434   44.4947 dc         1 CLA      0.052100
     72 HMB3       81.5012   62.5341   39.8229 dc         1 CLA      0.063600
     73 HMB2       81.6636   62.9400   41.5023 dc         1 CLA      0.063600
     74 HMB1       82.1709   61.3696   40.8077 dc         1 CLA      0.063600
     75 HMA3       82.1276   57.4887   36.5184 dc         1 CLA      0.058300
     76 HMA2       82.2432   58.4151   37.8978 dc         1 CLA      0.058300
     77 HMA1       81.2317   56.9507   37.8839 dc         1 CLA      0.058300
     78 HED3       77.2802   52.8883   38.3923 dc         1 CLA      0.079300
     79 HED2       77.2748   52.2157   36.7198 dc         1 CLA      0.079300
     80 HED1       78.6288   53.2835   37.2952 dc         1 CLA      0.079300
     81 HBC3       71.7562   56.2787   43.6346 dc         1 CLA      0.016300
     82 HBC2       72.2228   56.4053   42.0875 dc         1 CLA      0.016300
     83 HBC1       73.3732   56.3008   43.4988 dc         1 CLA      0.016300
     84 HBB2       80.9227   62.8832   44.8455 da         1 CLA      0.183000
     85 HBB1       81.5647   61.9392   43.4181 da         1 CLA      0.183000
     86 HBA2       80.4114   58.7084   32.6879 dc         1 CLA      0.029400
     87 HBA1       81.2499   58.8111   34.0453 dc         1 CLA      0.029400
     88 HAC2       72.2945   58.7047   44.0472 dc         1 CLA      0.029300
     89 HAC1       71.4950   58.5549   42.5666 dc         1 CLA      0.029300
     90 HAA2       78.4785   57.6084   33.9353 dc         1 CLA      0.028700
     91 HAA1       78.8057   59.3286   34.4605 dc         1 CLA      0.028700
     92 H203       85.7095   55.9932   49.5778 dc         1 CLA      0.065600
     93 H202       86.5487   57.6311   49.7081 dc         1 CLA      0.065600
     94 H201       84.8539   57.3881   50.3814 dc         1 CLA      0.065600
     95 H193       82.9517   57.7664   49.0777 dc         1 CLA      0.065600
     96 H192       83.1748   57.8854   47.2249 dc         1 CLA      0.065600
     97 H191       83.2735   56.2625   48.1252 dc         1 CLA      0.065600
     98 H172       85.7724   55.7538   46.9034 dc         1 CLA      0.027600
     99 H171       86.7204   57.1800   47.1068 dc         1 CLA      0.027600
    100 H162       84.8070   58.3387   45.7942 dc         1 CLA      0.002900
    101 H161       84.1509   56.7466   45.5858 dc         1 CLA      0.002900
    102 H152       86.0714   55.8143   44.4195 dc         1 CLA      0.029100
    103 H151       86.7821   57.3702   44.6407 dc         1 CLA      0.029100
    104 H143       86.5229   59.1021   42.7988 dc         1 CLA      0.063600
    105 H142       84.9025   59.1292   42.1588 dc         1 CLA      0.063600
    106 H141       85.1388   59.3923   43.9391 dc         1 CLA      0.063600
    107 H122       86.0213   55.5714   42.1196 dc         1 CLA      0.032500
    108 H121       87.1618   56.9423   42.0101 dc         1 CLA      0.032500
    109 H112       85.9241   58.0056   40.4473 dc         1 CLA      0.006600
    110 H111       84.4988   56.9024   40.4097 dc         1 CLA      0.006600
    111 H102       85.6020   55.1389   39.6141 dc         1 CLA      0.024100
    112 H101       87.2169   55.7396   39.6943 dc         1 CLA      0.024100
    113 HHD        72.6109   57.4921   40.4603 da         1 CLA      0.174300
    114 HHC        76.9252   61.1570   43.3038 da         1 CLA      0.136800
    115 HHB        80.9585   60.4639   38.5421 da         1 CLA      0.138300
    116 HBD        76.4276   56.4811   34.5495 dc         1 CLA      0.107700
    117 HAB        78.5412   62.6282   43.7658 da         1 CLA      0.155200
    118 H93        87.2897   57.8512   36.6546 dc         1 CLA      0.069500
    119 H92        87.2926   58.4237   38.3567 dc         1 CLA      0.069500
    120 H91        88.2329   56.9500   37.9545 dc         1 CLA      0.069500
    121 H8         85.1929   57.0294   38.0050 dc         1 CLA      0.029300
    122 H72        85.0947   54.7616   37.5601 dc         1 CLA      0.044400
    123 H71        86.7990   54.5265   37.2019 dc         1 CLA      0.044400
    124 H62        86.5712   56.1176   35.2410 dc         1 CLA      0.015600
    125 H61        84.8230   56.2465   35.6653 dc         1 CLA      0.015600
    126 H52        86.1595   53.5589   34.9724 dc         1 CLA      0.033200
    127 H51        85.4303   54.5063   33.8728 dc         1 CLA      0.033200
    128 H43        82.8548   51.8994   35.0137 dc         1 CLA      0.037000
    129 H42        84.4568   51.7475   34.2214 dc         1 CLA      0.037000
    130 H41        84.2382   51.7392   36.0682 dc         1 CLA      0.037000
    131 H3A        80.9497   59.4766   36.2701 dc         1 CLA      0.041100
    132 H2A        79.7164   56.8508   36.0014 dc         1 CLA      0.083100
    133 H2         82.8216   54.8676   36.2753 da         1 CLA      0.180900
    134 H18        85.2258   58.5293   48.1797 dc         1 CLA     -0.003900
    135 H13        84.3394   57.0887   43.0181 dc         1 CLA      0.019700
    136 H12        81.3284   54.1613   33.8504 dc         1 CLA      0.120400
    137 H11        82.7876   54.8844   33.1357 dc         1 CLA      0.120400
    138 C1         68.8719   61.5114   50.1905 Z1         2 LUT      0.509236
    139 C2         67.4245   61.2457   50.6826 Z2         2 LUT     -0.434695
    140 C3         66.5645   62.4088   51.1455 Z3         2 LUT      0.437453
    141 O3         66.8588   62.7742   52.4731 S1         2 LUT     -0.547129
    142 C4         66.9959   63.6720   50.3230 Z4         2 LUT     -0.468603
    143 C5         67.8874   63.4959   49.0600 Z5         2 LUT      0.279246
    144 C6         68.8351   62.4989   49.0439 Z6         2 LUT     -0.305473
    145 C7         69.1761   62.0848   47.7000 Z7         2 LUT      0.069402
    146 C8         70.2829   62.5344   47.0793 Z8         2 LUT     -0.191631
    147 C9         70.7050   62.1888   45.6951 Z9         2 LUT      0.196698
    148 C10        71.7901   62.9246   45.2426 Y1         2 LUT     -0.208611
    149 C11        72.4322   62.8547   43.9768 Y2         2 LUT      0.030784
    150 C12        73.6522   63.4284   43.6515 Y3         2 LUT     -0.220316
    151 C13        74.4573   63.4541   42.3975 Y4         2 LUT      0.215937
    152 C14        75.6661   64.0444   42.4936 Y5         2 LUT     -0.185793
    153 C15        76.7535   64.1871   41.5374 Y6         2 LUT     -0.057835
    154 C16        69.2451   60.0624   49.8507 Y7         2 LUT     -0.405615
    155 C17        69.6634   61.9427   51.4553 Y7         2 LUT     -0.405615
    156 C18        67.2923   64.1414   47.8330 Y9         2 LUT     -0.369639
    157 C19        70.0706   61.0385   44.9684 W1         2 LUT     -0.333362
    158 C20        73.9491   62.8160   41.1544 W2         2 LUT     -0.323439
    159 C21        87.9185   65.6862   34.9004 Z1         2 LUT      0.406104
    160 C22        88.6131   65.0241   33.7355 Z2         2 LUT     -0.404965
    161 C23        88.5142   65.7997   32.4002 Z3         2 LUT      0.391255
    162 O23        88.8207   64.9291   31.3717 S1         2 LUT     -0.528210
    163 C24        87.2221   66.5377   32.1851 W6         2 LUT     -0.258361
    164 C25        86.2229   66.5482   33.1041 Z5         2 LUT      0.133546
    165 C26        86.3491   65.8752   34.4242 W8         2 LUT     -0.147008
    166 C27        85.6452   66.5864   35.5331 Z7         2 LUT      0.023843
    167 C28        84.6323   66.0235   36.2171 Z8         2 LUT     -0.216987
    168 C29        83.9307   66.6228   37.3804 Z9         2 LUT      0.206524
    169 C30        82.8244   65.9341   37.8200 Y1         2 LUT     -0.215556
    170 C31        82.0455   66.2097   38.9987 Y2         2 LUT      0.025142
    171 C32        81.0047   65.4446   39.3779 Y3         2 LUT     -0.212209
    172 C33        80.2364   65.6175   40.6004 Y4         2 LUT      0.240937
    173 C34        79.0833   64.8158   40.7401 Y5         2 LUT     -0.218862
    174 C35        78.0097   64.6859   41.7671 Y6         2 LUT     -0.023547
    175 C36        88.7939   66.9079   35.3822 Y7         2 LUT     -0.393485
    176 C37        87.9605   64.6689   36.0304 Y7         2 LUT     -0.393485
    177 C38        84.9090   67.1798   32.8241 Y9         2 LUT     -0.387526
    178 C39        84.4992   67.8216   38.1483 W1         2 LUT     -0.322618
    179 C40        80.7045   66.7000   41.5564 W2         2 LUT     -0.358472
    180 H403       80.5134   67.6869   41.1490 R7         2 LUT      0.097720
    181 H402       80.1645   66.6868   42.5042 R7         2 LUT      0.097720
    182 H401       81.7225   66.5625   41.7682 R7         2 LUT      0.097720
    183 H393       83.6884   68.4281   38.5966 R4         2 LUT      0.082505
    184 H392       85.0590   67.4115   38.9919 R4         2 LUT      0.082505
    185 H391       85.2422   68.4590   37.6913 R4         2 LUT      0.082505
    186 H383       84.1467   66.4557   32.9354 R1         2 LUT      0.104030
    187 H382       84.7644   68.0942   33.3993 R1         2 LUT      0.104030
    188 H381       84.8362   67.4975   31.8123 R1         2 LUT      0.104030
    189 H373       87.5451   63.7295   35.7970 T4         2 LUT      0.089537
    190 H372       88.9707   64.3325   36.3217 T4         2 LUT      0.089537
    191 H371       87.5434   65.1087   36.8825 T4         2 LUT      0.089537
    192 H363       88.5948   67.3386   36.3718 T4         2 LUT      0.089537
    193 H362       89.8471   66.5372   35.5637 T4         2 LUT      0.089537
    194 H361       88.7842   67.7231   34.6414 T4         2 LUT      0.089537
    195 H222       89.6740   64.7856   33.9274 U2         2 LUT      0.127376
    196 H221       88.1661   64.0157   33.5779 U2         2 LUT      0.127376
    197 H203       72.9558   63.1396   40.9781 R7         2 LUT      0.087068
    198 H202       74.5758   63.1281   40.3374 R7         2 LUT      0.087068
    199 H201       73.9666   61.7794   41.2985 R7         2 LUT      0.087068
    200 H193       70.6861   60.5968   44.1160 R4         2 LUT      0.089716
    201 H192       69.8422   60.2357   45.7247 R4         2 LUT      0.089716
    202 H191       69.2570   61.4423   44.3947 R4         2 LUT      0.089716
    203 H183       67.8161   65.1281   47.6766 R1         2 LUT      0.094572
    204 H182       67.4913   63.6844   46.8149 R1         2 LUT      0.094572
    205 H181       66.2644   64.4596   47.7784 R1         2 LUT      0.094572
    206 H173       70.6694   61.6883   51.1919 T4         2 LUT      0.093752
    207 H172       69.4656   62.9840   51.7952 T4         2 LUT      0.093752
    208 H171       69.4744   61.3909   52.3433 T4         2 LUT      0.093752
    209 H163       69.6416   59.5620   50.8130 T4         2 LUT      0.093752
    210 H162       68.5188   59.4484   49.3259 T4         2 LUT      0.093752
    211 H161       70.1336   60.0484   49.1268 T4         2 LUT      0.093752
    212 HO3        66.4832   62.1629   53.1170 Q1         2 LUT      0.300121
    213 H8         70.8853   63.3278   47.5785 U7         2 LUT      0.080784
    214 H7         68.5186   61.3523   47.1228 U6         2 LUT      0.042190
    215 H42        66.0810   64.0821   49.9869 U5         2 LUT      0.145166
    216 H41        67.4315   64.4222   51.0391 U5         2 LUT      0.145166
    217 H35        78.1270   65.1428   42.7204 T3         2 LUT      0.077919
    218 H34        79.0128   64.0884   39.9217 T2         2 LUT      0.073626
    219 H32        80.6013   64.6847   38.6723 T1         2 LUT      0.092510
    220 H31        82.4610   66.9375   39.7108 U9         2 LUT      0.070048
    221 H30        82.4598   65.0605   37.2591 U8         2 LUT      0.085442
    222 H3         65.5013   62.1565   50.9015 U3         2 LUT     -0.031596
    223 H28        84.2785   65.0738   35.8327 U7         2 LUT      0.084728
    224 H27        85.9462   67.5283   35.8053 U6         2 LUT      0.087291
    225 H26        85.8438   64.9740   33.9872 Q6         2 LUT      0.075325
    226 H24        87.0369   67.0047   31.3057 Q5         2 LUT      0.094482
    227 H23        89.2528   66.6206   32.5576 U3         2 LUT     -0.024869
    228 H22        66.8982   60.8207   49.8495 U2         2 LUT      0.127376
    229 H21        67.3451   60.4119   51.4477 U2         2 LUT      0.127376
    230 H15        76.6037   63.8304   40.5113 T3         2 LUT      0.093200
    231 H14        76.0087   64.6168   43.4332 T2         2 LUT      0.068865
    232 H12        74.0897   63.9963   44.5351 T1         2 LUT      0.095507
    233 H11        71.9499   62.2182   43.2539 U9         2 LUT      0.068930
    234 H10        72.2933   63.6932   45.8772 U8         2 LUT      0.083911
    235 H1         88.9682   65.4205   30.5733 Q1         2 LUT      0.297311
@<TRIPOS>BOND
    1     6     1 1
    2     7     2 1
    3     8     3 1
    4     9     4 1
    5    11     4 1
    6    12     6 1
    7    13     9 1
    8    16     9 1
    9    25     5 1
   10    25    16 1
   11    26    10 1
   12    26    17 1
   13    27    18 1
   14    28    14 1
   15    28    19 1
   16    29    12 1
   17    30    13 1
   18    31    24 1
   19    32     1 1
   20    32    25 1
   21    33    21 1
   22    33    26 1
   23    34    22 1
   24    34    27 1
   25    35    23 1
   26    35    28 1
   27    36    12 1
   28    36    24 1
   29    37    13 1
   30    37    15 1
   31    38    31 1
   32    39    20 1
   33    39    32 1
   34    40     2 1
   35    40    33 1
   36    41     3 1
   37    41    34 1
   38    42     4 1
   39    42    35 1
   40    43    38 1
   41    44     5 1
   42    44    17 1
   43    44    39 1
   44    45    10 1
   45    45    18 1
   46    45    40 1
   47    46    19 1
   48    46    41 1
   49    47    14 1
   50    47    16 1
   51    47    42 1
   52    48    38 1
   53    49    48 1
   54    50    49 1
   55    51    50 1
   56    52    51 1
   57    53    51 1
   58    54    53 1
   59    55    54 1
   60    56    55 1
   61    57    56 1
   62    58    56 1
   63    59    58 1
   64    60    59 1
   65    61    60 1
   66    62    61 1
   67    63    61 1
   68    64    27 1
   69    64    46 1
   70    65     5 1
   71    65    10 1
   72    65    64 1
   73    65    14 1
   74    66    23 1
   75    67    23 1
   76    68    23 1
   77    69    22 1
   78    70    22 1
   79    71    22 1
   80    72    21 1
   81    73    21 1
   82    74    21 1
   83    75    20 1
   84    76    20 1
   85    77    20 1
   86    78    15 1
   87    79    15 1
   88    80    15 1
   89    81     8 1
   90    82     8 1
   91    83     8 1
   92    84     7 1
   93    85     7 1
   94    86     6 1
   95    87     6 1
   96    88     3 1
   97    89     3 1
   98    90     1 1
   99    91     1 1
  100    92    63 1
  101    93    63 1
  102    94    63 1
  103    95    62 1
  104    96    62 1
  105    97    62 1
  106    98    60 1
  107    99    60 1
  108   100    59 1
  109   101    59 1
  110   102    58 1
  111   103    58 1
  112   104    57 1
  113   105    57 1
  114   106    57 1
  115   107    55 1
  116   108    55 1
  117   109    54 1
  118   110    54 1
  119   111    53 1
  120   112    53 1
  121   113    19 1
  122   114    18 1
  123   115    17 1
  124   116     9 1
  125   117     2 1
  126   118    52 1
  127   119    52 1
  128   120    52 1
  129   121    51 1
  130   122    50 1
  131   123    50 1
  132   124    49 1
  133   125    49 1
  134   126    48 1
  135   127    48 1
  136   128    43 1
  137   129    43 1
  138   130    43 1
  139   131    39 1
  140   132    32 1
  141   133    31 1
  142   134    61 1
  143   135    56 1
  144   136    24 1
  145   137    24 1
  146   139   138 1
  147   140   139 1
  148   141   140 1
  149   142   140 1
  150   143   142 1
  151   144   138 1
  152   144   143 1
  153   145   144 1
  154   146   145 1
  155   147   146 1
  156   148   147 1
  157   149   148 1
  158   150   149 1
  159   151   150 1
  160   152   151 1
  161   153   152 1
  162   154   138 1
  163   155   138 1
  164   156   143 1
  165   157   147 1
  166   158   151 1
  167   160   159 1
  168   161   160 1
  169   162   161 1
  170   163   161 1
  171   164   163 1
  172   165   159 1
  173   165   164 1
  174   166   165 1
  175   167   166 1
  176   168   167 1
  177   169   168 1
  178   170   169 1
  179   171   170 1
  180   172   171 1
  181   173   172 1
  182   174   153 1
  183   174   173 1
  184   175   159 1
  185   176   159 1
  186   177   164 1
  187   178   168 1
  188   179   172 1
  189   180   179 1
  190   181   179 1
  191   182   179 1
  192   183   178 1
  193   184   178 1
  194   185   178 1
  195   186   177 1
  196   187   177 1
  197   188   177 1
  198   189   176 1
  199   190   176 1
  200   191   176 1
  201   192   175 1
  202   193   175 1
  203   194   175 1
  204   195   160 1
  205   196   160 1
  206   197   158 1
  207   198   158 1
  208   199   158 1
  209   200   157 1
  210   201   157 1
  211   202   157 1
  212   203   156 1
  213   204   156 1
  214   205   156 1
  215   206   155 1
  216   207   155 1
  217   208   155 1
  218   209   154 1
  219   210   154 1
  220   211   154 1
  221   212   141 1
  222   213   146 1
  223   214   145 1
  224   215   142 1
  225   216   142 1
  226   217   174 1
  227   218   173 1
  228   219   171 1
  229   220   170 1
  230   221   169 1
  231   222   140 1
  232   223   167 1
  233   224   166 1
  234   225   165 1
  235   226   163 1
  236   227   161 1
  237   228   139 1
  238   229   139 1
  239   230   153 1
  240   231   152 1
  241   232   150 1
  242   233   149 1
  243   234   148 1
  244   235   162 1
  245   65    153 1
  246   65    174 1
@<TRIPOS>SUBSTRUCTURE
      1 CLA               1 ****               0 ****  **** 
      2 LUT             138 ****               0 ****  **** 
