@<TRIPOS>MOLECULE
Cpptraj generated mol2 file.
  235   246     2     0     0
SMALL
USER_CHARGES


@<TRIPOS>ATOM
      1 CAA        77.3816   58.6206   34.7842 a2         1 CLA     -0.055900
      2 CAB        76.7932   62.0021   43.9894 c8         1 CLA     -0.148500
      3 CAC        70.3479   57.1558   43.1588 a2         1 CLA     -0.012600
      4 CAD        73.4506   55.6488   35.6977 ck         1 CLA      0.398800
      5 NA         76.2378   58.6894   38.2077 ns         1 CLA     -0.225500
      6 CBA        78.6005   58.6678   33.8456 a2         1 CLA     -0.135000
      7 CBB        76.1502   61.5144   45.1058 c0         1 CLA     -0.395200
      8 CBC        70.8574   56.1690   44.1771 a3         1 CLA     -0.037700
      9 CBD        74.7926   56.3998   35.5048 a1         1 CLA     -0.053900
     10 NB         75.8582   60.0401   40.9112 nm         1 CLA     -0.295700
     11 OBD        73.0495   54.7551   34.9479 o2         1 CLA     -0.494600
     12 CGA        79.2262   57.2785   33.6327 c4         1 CLA      0.827000
     13 CGD        75.9331   55.4128   35.3947 c4         1 CLA      0.655300
     14 ND         73.5299   57.6076   38.7060 nm         1 CLA     -0.291600
     15 CED        77.3786   53.9353   36.6849 a3         1 CLA      0.005400
     16 CHA        75.0712   57.2290   36.7275 cs         1 CLA     -0.123800
     17 CHB        77.7486   60.2617   39.3619 aa         1 CLA     -0.291900
     18 CHC        74.3301   60.2923   42.8137 aa         1 CLA     -0.090400
     19 CHD        71.7632   57.0510   40.2533 aa         1 CLA     -0.052000
     20 CMA        79.7067   58.3759   37.6632 a3         1 CLA     -0.230700
     21 CMB        79.0610   62.1348   41.5444 a3         1 CLA     -0.180800
     22 CMC        71.9282   59.5713   44.7541 a3         1 CLA     -0.134000
     23 CMD        70.8127   55.2205   38.0720 a3         1 CLA     -0.141100
     24 C1         80.2862   55.3956   34.6529 a2         1 CLA      0.023000
     25 C1A        76.1744   58.0294   37.0476 ac         1 CLA     -0.015100
     26 C1B        77.0972   60.5723   40.5338 cr         1 CLA      0.054700
     27 C1C        73.2600   59.4181   42.5006 cn         1 CLA     -0.005600
     28 C1D        72.4156   56.9031   39.0549 ap         1 CLA     -0.047300
     29 O1A        78.9593   56.5116   32.7295 o2         1 CLA     -0.610800
     30 O1D        76.7985   55.3893   34.5385 o2         1 CLA     -0.558200
     31 C2         80.9949   55.1771   36.0230 c8         1 CLA     -0.325100
     32 C2A        77.5313   58.1338   36.2719 a1         1 CLA      0.098600
     33 C2B        77.6662   61.4172   41.6345 cb         1 CLA      0.088500
     34 C2C        72.1702   59.0218   43.3658 cb         1 CLA      0.053700
     35 C2D        71.9996   56.0666   37.9957 cb         1 CLA      0.058900
     36 O2A        80.0462   56.8812   34.6342 o1         1 CLA     -0.437200
     37 O2D        76.1337   54.6296   36.4814 o1         1 CLA     -0.357600
     38 C3         81.5624   53.9956   36.3723 c5         1 CLA      0.031200
     39 C3A        78.3991   59.0575   37.1918 a1         1 CLA      0.166800
     40 C3B        76.6992   61.3606   42.6710 cb         1 CLA      0.035000
     41 C3C        71.4299   58.0266   42.6601 cb         1 CLA     -0.089900
     42 C3D        72.9826   56.1320   37.0461 cb         1 CLA     -0.035900
     43 C4         80.8660   52.9293   37.2225 a3         1 CLA     -0.053300
     44 C4A        77.4545   59.2717   38.3038 ac         1 CLA      0.001800
     45 C4B        75.5490   60.5830   42.1364 cn         1 CLA     -0.020900
     46 C4C        72.0515   57.9526   41.3205 cr         1 CLA     -0.044400
     47 C4D        73.9380   57.0670   37.5611 c6         1 CLA     -0.046000
     48 C5         83.0077   53.6521   35.9854 a2         1 CLA     -0.070400
     49 C6         83.9752   54.8751   36.0048 a2         1 CLA      0.043900
     50 C7         84.2673   55.1675   37.5383 a2         1 CLA     -0.150000
     51 C8         85.2722   56.3817   37.8311 a1         1 CLA      0.064200
     52 C9         86.7082   55.8805   37.4892 a3         1 CLA     -0.259300
     53 C10        85.1186   57.0021   39.2507 a2         1 CLA     -0.071900
     54 C11        83.8882   57.6630   39.8051 a2         1 CLA      0.014500
     55 C12        84.2305   58.7406   40.8332 a2         1 CLA     -0.112100
     56 C13        85.0443   58.3768   42.1088 a1         1 CLA      0.089200
     57 C14        84.5647   57.1841   42.9331 a3         1 CLA     -0.239100
     58 C15        85.3090   59.6098   43.0599 a2         1 CLA     -0.102200
     59 C16        84.0578   60.1761   43.7106 a2         1 CLA      0.023900
     60 C17        84.4427   61.0486   44.9610 a2         1 CLA     -0.105700
     61 C18        83.2387   61.2749   46.0135 a1         1 CLA      0.206800
     62 C19        83.7964   62.1215   47.2484 a3         1 CLA     -0.280100
     63 C20        82.1276   62.0740   45.3636 a3         1 CLA     -0.280100
     64 NC         73.1621   58.7697   41.3118 nx         1 CLA     -0.309200
     65 MG         74.6900   58.9081   39.7821 mg         1 CLA      0.895000
     66 HMD3       70.8970   54.6314   37.1815 dc         1 CLA      0.064300
     67 HMD2       70.7218   54.6070   38.9834 dc         1 CLA      0.064300
     68 HMD1       69.9347   55.8406   37.9623 dc         1 CLA      0.064300
     69 HMC3       71.9375   58.7377   45.4892 dc         1 CLA      0.052100
     70 HMC2       72.6138   60.3687   45.0126 dc         1 CLA      0.052100
     71 HMC1       70.9039   59.9434   44.7647 dc         1 CLA      0.052100
     72 HMB3       79.8421   61.4364   41.3489 dc         1 CLA      0.063600
     73 HMB2       79.1293   62.9283   40.8089 dc         1 CLA      0.063600
     74 HMB1       79.3590   62.6351   42.4610 dc         1 CLA      0.063600
     75 HMA3       80.4278   58.3120   36.8884 dc         1 CLA      0.058300
     76 HMA2       80.2489   58.8407   38.4624 dc         1 CLA      0.058300
     77 HMA1       79.5265   57.3561   37.8617 dc         1 CLA      0.058300
     78 HED3       77.5693   53.1937   35.9493 dc         1 CLA      0.079300
     79 HED2       78.1983   54.6435   36.8348 dc         1 CLA      0.079300
     80 HED1       77.2415   53.4404   37.6200 dc         1 CLA      0.079300
     81 HBC3       70.9243   56.7884   45.1231 dc         1 CLA      0.016300
     82 HBC2       70.2185   55.3263   44.2572 dc         1 CLA      0.016300
     83 HBC1       71.8518   55.8924   43.7635 dc         1 CLA      0.016300
     84 HBB2       76.2887   62.0960   46.0830 da         1 CLA      0.183000
     85 HBB1       75.6124   60.5250   45.0975 da         1 CLA      0.183000
     86 HBA2       78.2546   59.0456   32.9143 dc         1 CLA      0.029400
     87 HBA1       79.3497   59.3693   34.2981 dc         1 CLA      0.029400
     88 HAC2       69.5574   57.6967   43.6133 dc         1 CLA      0.029300
     89 HAC1       69.9660   56.6052   42.3111 dc         1 CLA      0.029300
     90 HAA2       76.8220   57.8875   34.3000 dc         1 CLA      0.028700
     91 HAA1       76.7093   59.4766   34.7345 dc         1 CLA      0.028700
     92 H203       82.6506   62.8823   44.8082 dc         1 CLA      0.065600
     93 H202       81.4609   61.4389   44.7736 dc         1 CLA      0.065600
     94 H201       81.5128   62.5973   46.0963 dc         1 CLA      0.065600
     95 H193       82.8515   62.2508   47.8221 dc         1 CLA      0.065600
     96 H192       84.3595   61.3853   47.8194 dc         1 CLA      0.065600
     97 H191       84.3940   63.0247   46.9265 dc         1 CLA      0.065600
     98 H172       85.2315   60.6230   45.5460 dc         1 CLA      0.027600
     99 H171       84.7686   62.0008   44.6044 dc         1 CLA      0.027600
    100 H162       83.4306   60.7178   43.0385 dc         1 CLA      0.002900
    101 H161       83.4670   59.4091   44.1065 dc         1 CLA      0.002900
    102 H152       86.0995   59.3737   43.7119 dc         1 CLA      0.029100
    103 H151       85.8183   60.3212   42.4708 dc         1 CLA      0.029100
    104 H143       83.5886   57.3105   43.2868 dc         1 CLA      0.063600
    105 H142       84.5514   56.2563   42.3808 dc         1 CLA      0.063600
    106 H141       85.1262   57.1417   43.8888 dc         1 CLA      0.063600
    107 H122       84.7487   59.6810   40.4379 dc         1 CLA      0.032500
    108 H121       83.2612   59.1139   41.1693 dc         1 CLA      0.032500
    109 H112       83.2313   58.2336   39.0618 dc         1 CLA      0.006600
    110 H111       83.2764   56.8334   40.1470 dc         1 CLA      0.006600
    111 H102       85.3982   56.2204   39.9372 dc         1 CLA      0.024100
    112 H101       85.9338   57.7175   39.4456 dc         1 CLA      0.024100
    113 HHD        70.7681   56.5963   40.3583 da         1 CLA      0.174300
    114 HHC        74.0809   60.7928   43.7922 da         1 CLA      0.136800
    115 HHB        78.7309   60.7409   39.3760 da         1 CLA      0.138300
    116 HBD        74.7609   57.0267   34.6016 dc         1 CLA      0.107700
    117 HAB        77.4783   62.8631   44.0930 da         1 CLA      0.155200
    118 H93        87.4513   56.6335   37.6032 dc         1 CLA      0.069500
    119 H92        87.0810   55.0395   38.0366 dc         1 CLA      0.069500
    120 H91        86.7083   55.5105   36.4589 dc         1 CLA      0.069500
    121 H8         84.9302   57.1766   37.2327 dc         1 CLA      0.029300
    122 H72        83.3368   55.4541   38.0424 dc         1 CLA      0.044400
    123 H71        84.6807   54.2687   38.0168 dc         1 CLA      0.044400
    124 H62        84.8723   54.8527   35.3527 dc         1 CLA      0.015600
    125 H61        83.4314   55.7423   35.7086 dc         1 CLA      0.015600
    126 H52        83.4215   52.8379   36.5218 dc         1 CLA      0.033200
    127 H51        83.0227   53.2393   34.9781 dc         1 CLA      0.033200
    128 H43        81.3467   52.9092   38.2099 dc         1 CLA      0.037000
    129 H42        79.7614   53.0625   37.3089 dc         1 CLA      0.037000
    130 H41        81.0940   51.9435   36.8047 dc         1 CLA      0.037000
    131 H3A        78.7157   60.0125   36.7039 dc         1 CLA      0.041100
    132 H2A        77.9179   57.1002   36.3189 dc         1 CLA      0.083100
    133 H2         81.0477   56.0703   36.6884 da         1 CLA      0.180900
    134 H18        82.9890   60.3268   46.4433 dc         1 CLA     -0.003900
    135 H13        86.0381   58.1441   41.7338 dc         1 CLA      0.019700
    136 H12        79.3709   54.7847   34.6106 dc         1 CLA      0.120400
    137 H11        80.9263   55.1098   33.7752 dc         1 CLA      0.120400
    138 C1         67.7701   61.5040   51.1743 Z1         2 LUT      0.509236
    139 C2         66.3880   61.4004   51.8607 Z2         2 LUT     -0.434695
    140 C3         65.5533   62.7201   52.0463 Z3         2 LUT      0.437453
    141 O3         65.3917   63.0820   53.3590 S1         2 LUT     -0.547129
    142 C4         66.0985   63.9332   51.2827 Z4         2 LUT     -0.468603
    143 C5         66.9442   63.6085   50.0886 Z5         2 LUT      0.279246
    144 C6         67.6797   62.5156   49.9668 Z6         2 LUT     -0.305473
    145 C7         67.9792   61.9710   48.6916 Z7         2 LUT      0.069402
    146 C8         69.1033   62.4865   48.0470 Z8         2 LUT     -0.191631
    147 C9         69.4794   62.3001   46.6573 Z9         2 LUT      0.196698
    148 C10        70.5003   63.1325   46.1939 Y1         2 LUT     -0.208611
    149 C11        71.1114   63.0941   44.8924 Y2         2 LUT      0.030784
    150 C12        72.2003   63.8766   44.5501 Y3         2 LUT     -0.220316
    151 C13        72.9456   63.8236   43.3451 Y4         2 LUT      0.215937
    152 C14        74.1910   64.4507   43.2309 Y5         2 LUT     -0.185793
    153 C15        75.3416   64.4262   42.2906 Y6         2 LUT     -0.057835
    154 C16        68.3168   60.1384   50.8416 Y7         2 LUT     -0.405615
    155 C17        68.7013   62.1934   52.2287 Y7         2 LUT     -0.405615
    156 C18        66.4030   64.3306   48.8350 Y9         2 LUT     -0.369639
    157 C19        68.8475   61.1690   45.8776 W1         2 LUT     -0.333362
    158 C20        72.2403   63.3070   42.0687 W2         2 LUT     -0.323439
    159 C21        86.0922   65.5287   35.1234 Z1         2 LUT      0.406104
    160 C22        86.7319   64.7730   33.9061 Z2         2 LUT     -0.404965
    161 C23        86.8391   65.5870   32.5989 Z3         2 LUT      0.391255
    162 O23        87.2829   64.6998   31.5515 S1         2 LUT     -0.528210
    163 C24        85.5771   66.4229   32.3869 W6         2 LUT     -0.258361
    164 C25        84.6298   66.7661   33.2660 Z5         2 LUT      0.133546
    165 C26        84.6928   66.1146   34.6436 W8         2 LUT     -0.147008
    166 C27        83.9122   66.8442   35.6676 Z7         2 LUT      0.023843
    167 C28        83.0075   66.2514   36.5012 Z8         2 LUT     -0.216987
    168 C29        82.3952   66.7251   37.8196 Z9         2 LUT      0.206524
    169 C30        81.3972   65.9291   38.3946 Y1         2 LUT     -0.215556
    170 C31        80.6268   66.1922   39.5908 Y2         2 LUT      0.025142
    171 C32        79.4538   65.5825   39.9615 Y3         2 LUT     -0.212209
    172 C33        78.6496   65.9027   41.2322 Y4         2 LUT      0.240937
    173 C34        77.4857   65.2070   41.3985 Y5         2 LUT     -0.218862
    174 C35        76.4974   65.2149   42.4453 Y6         2 LUT     -0.023547
    175 C36        87.1323   66.5248   35.5890 Y7         2 LUT     -0.393485
    176 C37        85.9714   64.4161   36.2575 Y7         2 LUT     -0.393485
    177 C38        83.3825   67.5649   32.7923 Y9         2 LUT     -0.387526
    178 C39        83.1206   67.9952   38.3491 W1         2 LUT     -0.322618
    179 C40        79.2094   66.8178   42.2895 W2         2 LUT     -0.358472
    180 H403       78.5475   66.8146   43.1561 R7         2 LUT      0.097720
    181 H402       80.2670   66.6514   42.5434 R7         2 LUT      0.097720
    182 H401       79.0344   67.8453   41.7824 R7         2 LUT      0.097720
    183 H393       82.9704   68.2403   39.4356 R4         2 LUT      0.082505
    184 H392       84.1905   67.7465   38.1804 R4         2 LUT      0.082505
    185 H391       82.9439   68.8476   37.7791 R4         2 LUT      0.082505
    186 H383       83.3191   68.5026   33.3202 R1         2 LUT      0.104030
    187 H382       83.3554   67.7032   31.7186 R1         2 LUT      0.104030
    188 H381       82.4422   67.1372   33.0024 R1         2 LUT      0.104030
    189 H373       85.2530   64.6912   37.0213 T4         2 LUT      0.089537
    190 H372       85.4345   63.5254   35.8168 T4         2 LUT      0.089537
    191 H371       86.9541   64.1672   36.6496 T4         2 LUT      0.089537
    192 H363       88.0879   66.1446   35.9086 T4         2 LUT      0.089537
    193 H362       87.3226   67.4154   34.9686 T4         2 LUT      0.089537
    194 H361       86.7301   67.0487   36.4268 T4         2 LUT      0.089537
    195 H222       87.6577   64.3458   34.1696 U2         2 LUT      0.127376
    196 H221       86.0995   63.9754   33.7555 U2         2 LUT      0.127376
    197 H203       72.4272   63.8767   41.1111 R7         2 LUT      0.087068
    198 H202       72.4131   62.1900   41.8565 R7         2 LUT      0.087068
    199 H201       71.1764   63.4233   42.2685 R7         2 LUT      0.087068
    200 H193       69.1771   61.2653   44.8188 R4         2 LUT      0.089716
    201 H192       69.0085   60.1630   46.1902 R4         2 LUT      0.089716
    202 H191       67.8123   61.3249   46.0200 R4         2 LUT      0.089716
    203 H183       65.5484   63.8315   48.4340 R1         2 LUT      0.094572
    204 H182       66.0549   65.3164   49.1277 R1         2 LUT      0.094572
    205 H181       67.2363   64.3932   48.1443 R1         2 LUT      0.094572
    206 H173       69.0664   61.4122   52.8918 T4         2 LUT      0.093752
    207 H172       69.6250   62.5704   51.7312 T4         2 LUT      0.093752
    208 H171       68.3460   63.0288   52.7865 T4         2 LUT      0.093752
    209 H163       68.5876   59.4667   51.7139 T4         2 LUT      0.093752
    210 H162       67.6037   59.5053   50.1942 T4         2 LUT      0.093752
    211 H161       69.3061   60.2834   50.2557 T4         2 LUT      0.093752
    212 HO3        64.6465   62.5336   53.7854 Q1         2 LUT      0.300121
    213 H8         69.7793   63.1289   48.5912 U7         2 LUT      0.080784
    214 H7         67.1654   61.4989   48.1842 U6         2 LUT      0.042190
    215 H42        65.3815   64.6751   50.9423 U5         2 LUT      0.145166
    216 H41        66.6988   64.5515   51.9744 U5         2 LUT      0.145166
    217 H35        76.5717   65.9575   43.1485 T3         2 LUT      0.077919
    218 H34        77.3598   64.6329   40.4739 T2         2 LUT      0.073626
    219 H32        79.1489   64.7961   39.2311 T1         2 LUT      0.092510
    220 H31        81.0260   67.0797   40.0625 U9         2 LUT      0.070048
    221 H30        81.1175   65.0364   37.8005 U8         2 LUT      0.085442
    222 H3         64.6291   62.5172   51.6449 U3         2 LUT     -0.031596
    223 H28        82.7517   65.2229   36.2681 U7         2 LUT      0.084728
    224 H27        84.2838   67.8996   35.8728 U6         2 LUT      0.087291
    225 H26        84.0683   65.2432   34.3746 Q6         2 LUT      0.075325
    226 H24        85.4872   66.8840   31.3791 Q5         2 LUT      0.094482
    227 H23        87.6479   66.3368   32.6988 U3         2 LUT     -0.024869
    228 H22        65.6664   60.8487   51.2269 U2         2 LUT      0.127376
    229 H21        66.3816   60.8197   52.7388 U2         2 LUT      0.127376
    230 H15        75.4130   63.7248   41.5246 T3         2 LUT      0.093200
    231 H14        74.5262   64.9246   44.1539 T2         2 LUT      0.068865
    232 H12        72.5782   64.5300   45.3013 T1         2 LUT      0.095507
    233 H11        70.8385   62.3006   44.1841 U9         2 LUT      0.068930
    234 H10        70.9023   63.8534   46.9153 U8         2 LUT      0.083911
    235 H1         87.2053   65.0832   30.6419 Q1         2 LUT      0.297311
@<TRIPOS>BOND
    1     6     1 1
    2     7     2 1
    3     8     3 1
    4     9     4 1
    5    11     4 1
    6    12     6 1
    7    13     9 1
    8    16     9 1
    9    25     5 1
   10    25    16 1
   11    26    10 1
   12    26    17 1
   13    27    18 1
   14    28    14 1
   15    28    19 1
   16    29    12 1
   17    30    13 1
   18    31    24 1
   19    32     1 1
   20    32    25 1
   21    33    21 1
   22    33    26 1
   23    34    22 1
   24    34    27 1
   25    35    23 1
   26    35    28 1
   27    36    12 1
   28    36    24 1
   29    37    13 1
   30    37    15 1
   31    38    31 1
   32    39    20 1
   33    39    32 1
   34    40     2 1
   35    40    33 1
   36    41     3 1
   37    41    34 1
   38    42     4 1
   39    42    35 1
   40    43    38 1
   41    44     5 1
   42    44    17 1
   43    44    39 1
   44    45    10 1
   45    45    18 1
   46    45    40 1
   47    46    19 1
   48    46    41 1
   49    47    14 1
   50    47    16 1
   51    47    42 1
   52    48    38 1
   53    49    48 1
   54    50    49 1
   55    51    50 1
   56    52    51 1
   57    53    51 1
   58    54    53 1
   59    55    54 1
   60    56    55 1
   61    57    56 1
   62    58    56 1
   63    59    58 1
   64    60    59 1
   65    61    60 1
   66    62    61 1
   67    63    61 1
   68    64    27 1
   69    64    46 1
   70    65     5 1
   71    65    10 1
   72    65    64 1
   73    65    14 1
   74    66    23 1
   75    67    23 1
   76    68    23 1
   77    69    22 1
   78    70    22 1
   79    71    22 1
   80    72    21 1
   81    73    21 1
   82    74    21 1
   83    75    20 1
   84    76    20 1
   85    77    20 1
   86    78    15 1
   87    79    15 1
   88    80    15 1
   89    81     8 1
   90    82     8 1
   91    83     8 1
   92    84     7 1
   93    85     7 1
   94    86     6 1
   95    87     6 1
   96    88     3 1
   97    89     3 1
   98    90     1 1
   99    91     1 1
  100    92    63 1
  101    93    63 1
  102    94    63 1
  103    95    62 1
  104    96    62 1
  105    97    62 1
  106    98    60 1
  107    99    60 1
  108   100    59 1
  109   101    59 1
  110   102    58 1
  111   103    58 1
  112   104    57 1
  113   105    57 1
  114   106    57 1
  115   107    55 1
  116   108    55 1
  117   109    54 1
  118   110    54 1
  119   111    53 1
  120   112    53 1
  121   113    19 1
  122   114    18 1
  123   115    17 1
  124   116     9 1
  125   117     2 1
  126   118    52 1
  127   119    52 1
  128   120    52 1
  129   121    51 1
  130   122    50 1
  131   123    50 1
  132   124    49 1
  133   125    49 1
  134   126    48 1
  135   127    48 1
  136   128    43 1
  137   129    43 1
  138   130    43 1
  139   131    39 1
  140   132    32 1
  141   133    31 1
  142   134    61 1
  143   135    56 1
  144   136    24 1
  145   137    24 1
  146   139   138 1
  147   140   139 1
  148   141   140 1
  149   142   140 1
  150   143   142 1
  151   144   138 1
  152   144   143 1
  153   145   144 1
  154   146   145 1
  155   147   146 1
  156   148   147 1
  157   149   148 1
  158   150   149 1
  159   151   150 1
  160   152   151 1
  161   153   152 1
  162   154   138 1
  163   155   138 1
  164   156   143 1
  165   157   147 1
  166   158   151 1
  167   160   159 1
  168   161   160 1
  169   162   161 1
  170   163   161 1
  171   164   163 1
  172   165   159 1
  173   165   164 1
  174   166   165 1
  175   167   166 1
  176   168   167 1
  177   169   168 1
  178   170   169 1
  179   171   170 1
  180   172   171 1
  181   173   172 1
  182   174   153 1
  183   174   173 1
  184   175   159 1
  185   176   159 1
  186   177   164 1
  187   178   168 1
  188   179   172 1
  189   180   179 1
  190   181   179 1
  191   182   179 1
  192   183   178 1
  193   184   178 1
  194   185   178 1
  195   186   177 1
  196   187   177 1
  197   188   177 1
  198   189   176 1
  199   190   176 1
  200   191   176 1
  201   192   175 1
  202   193   175 1
  203   194   175 1
  204   195   160 1
  205   196   160 1
  206   197   158 1
  207   198   158 1
  208   199   158 1
  209   200   157 1
  210   201   157 1
  211   202   157 1
  212   203   156 1
  213   204   156 1
  214   205   156 1
  215   206   155 1
  216   207   155 1
  217   208   155 1
  218   209   154 1
  219   210   154 1
  220   211   154 1
  221   212   141 1
  222   213   146 1
  223   214   145 1
  224   215   142 1
  225   216   142 1
  226   217   174 1
  227   218   173 1
  228   219   171 1
  229   220   170 1
  230   221   169 1
  231   222   140 1
  232   223   167 1
  233   224   166 1
  234   225   165 1
  235   226   163 1
  236   227   161 1
  237   228   139 1
  238   229   139 1
  239   230   153 1
  240   231   152 1
  241   232   150 1
  242   233   149 1
  243   234   148 1
  244   235   162 1
  245   65    153 1
  246   65    174 1
@<TRIPOS>SUBSTRUCTURE
      1 CLA               1 ****               0 ****  **** 
      2 LUT             138 ****               0 ****  **** 
