@<TRIPOS>MOLECULE
Cpptraj generated mol2 file.
  235   246     2     0     0
SMALL
USER_CHARGES


@<TRIPOS>ATOM
      1 CAA        78.7394   59.9875   33.9466 a2         1 CLA     -0.055900
      2 CAB        78.7116   62.0941   43.4403 c8         1 CLA     -0.148500
      3 CAC        72.0823   58.1120   42.3558 a2         1 CLA     -0.012600
      4 CAD        74.5333   57.4262   34.6980 ck         1 CLA      0.398800
      5 NA         77.7980   59.6051   37.3942 ns         1 CLA     -0.225500
      6 CBA        79.9140   59.9834   33.0059 a2         1 CLA     -0.135000
      7 CBB        79.9235   62.3333   44.0003 c0         1 CLA     -0.395200
      8 CBC        72.3571   56.6599   42.3351 a3         1 CLA     -0.037700
      9 CBD        76.0216   57.8820   34.5078 a1         1 CLA     -0.053900
     10 NB         77.7616   60.7015   40.1541 nm         1 CLA     -0.295700
     11 OBD        73.8266   56.9153   33.8735 o2         1 CLA     -0.494600
     12 CGA        80.3843   58.6945   32.3019 c4         1 CLA      0.827000
     13 CGD        76.8737   56.6590   33.9817 c4         1 CLA      0.655300
     14 ND         75.0896   58.7196   37.8857 nm         1 CLA     -0.291600
     15 CED        76.8815   54.2190   33.7034 a3         1 CLA      0.005400
     16 CHA        76.4684   58.5068   35.8591 cs         1 CLA     -0.123800
     17 CHB        79.6120   60.8229   38.5639 aa         1 CLA     -0.291900
     18 CHC        76.2694   60.8174   42.0292 aa         1 CLA     -0.090400
     19 CHD        73.2113   58.2032   39.4472 aa         1 CLA     -0.052000
     20 CMA        80.9868   58.6419   36.5752 a3         1 CLA     -0.230700
     21 CMB        80.9679   62.4742   40.8952 a3         1 CLA     -0.180800
     22 CMC        73.9904   60.0540   43.9270 a3         1 CLA     -0.134000
     23 CMD        71.8003   56.9812   36.8598 a3         1 CLA     -0.141100
     24 C1         81.1839   56.4547   32.6479 a2         1 CLA      0.023000
     25 C1A        77.6281   59.0776   36.1435 ac         1 CLA     -0.015100
     26 C1B        79.0014   61.1383   39.8570 cr         1 CLA      0.054700
     27 C1C        75.2063   60.0463   41.7051 cn         1 CLA     -0.005600
     28 C1D        73.8156   58.1306   38.2030 ap         1 CLA     -0.047300
     29 O1A        80.2865   58.4415   31.1160 o2         1 CLA     -0.610800
     30 O1D        77.9379   56.7457   33.3997 o2         1 CLA     -0.558200
     31 C2         81.5686   55.8684   33.9342 c8         1 CLA     -0.325100
     32 C2A        78.8634   59.2079   35.2595 a1         1 CLA      0.098600
     33 C2B        79.5673   61.7983   40.9966 cb         1 CLA      0.088500
     34 C2C        74.1615   59.6548   42.5657 cb         1 CLA      0.053700
     35 C2D        73.2145   57.6192   36.9855 cb         1 CLA      0.058900
     36 O2A        80.8990   57.8227   33.1893 o1         1 CLA     -0.437200
     37 O2D        76.2180   55.4777   34.1832 o1         1 CLA     -0.357600
     38 C3         82.2841   54.7487   34.1025 c5         1 CLA      0.031200
     39 C3A        79.9393   59.7217   36.2729 a1         1 CLA      0.166800
     40 C3B        78.6613   61.7338   42.0307 cb         1 CLA      0.035000
     41 C3C        73.3251   58.8291   41.8744 cb         1 CLA     -0.089900
     42 C3D        74.2073   57.7818   36.0170 cb         1 CLA     -0.035900
     43 C4         81.6854   53.3523   34.3057 a3         1 CLA     -0.053300
     44 C4A        79.0687   60.0614   37.4927 ac         1 CLA      0.001800
     45 C4B        77.4942   61.0880   41.4262 cn         1 CLA     -0.020900
     46 C4C        73.8447   58.8475   40.5754 cr         1 CLA     -0.044400
     47 C4D        75.3097   58.4367   36.6257 c6         1 CLA     -0.046000
     48 C5         83.7609   54.7368   33.7827 a2         1 CLA     -0.070400
     49 C6         84.7013   55.6540   34.6341 a2         1 CLA      0.043900
     50 C7         84.6609   55.2314   36.0654 a2         1 CLA     -0.150000
     51 C8         85.3306   56.2279   37.1455 a1         1 CLA      0.064200
     52 C9         86.8692   56.2750   36.8479 a3         1 CLA     -0.259300
     53 C10        84.9703   56.0659   38.6488 a2         1 CLA     -0.071900
     54 C11        83.6027   56.5896   39.0942 a2         1 CLA      0.014500
     55 C12        83.4370   56.9096   40.6345 a2         1 CLA     -0.112100
     56 C13        81.9914   57.3246   41.0301 a1         1 CLA      0.089200
     57 C14        81.5027   58.7036   40.4858 a3         1 CLA     -0.239100
     58 C15        81.6954   57.1396   42.5474 a2         1 CLA     -0.102200
     59 C16        82.4181   58.0901   43.5457 a2         1 CLA      0.023900
     60 C17        82.4433   57.4123   44.9909 a2         1 CLA     -0.105700
     61 C18        83.7413   57.4452   45.7507 a1         1 CLA      0.206800
     62 C19        84.2105   58.8980   46.1714 a3         1 CLA     -0.280100
     63 C20        83.8258   56.3523   46.8784 a3         1 CLA     -0.280100
     64 NC         75.0183   59.5170   40.5115 nx         1 CLA     -0.309200
     65 MG         76.3789   59.7734   38.9536 mg         1 CLA      0.895000
     66 HMD3       71.7808   56.0220   36.3522 dc         1 CLA      0.064300
     67 HMD2       71.3199   56.7699   37.7981 dc         1 CLA      0.064300
     68 HMD1       71.1717   57.6658   36.3611 dc         1 CLA      0.064300
     69 HMC3       74.5427   59.4572   44.6430 dc         1 CLA      0.052100
     70 HMC2       74.3496   61.0640   44.1484 dc         1 CLA      0.052100
     71 HMC1       72.9240   60.0421   44.0993 dc         1 CLA      0.052100
     72 HMB3       81.7153   61.7207   41.1997 dc         1 CLA      0.063600
     73 HMB2       81.2512   62.7222   39.8120 dc         1 CLA      0.063600
     74 HMB1       81.1291   63.4057   41.5203 dc         1 CLA      0.063600
     75 HMA3       80.5387   57.7445   37.0077 dc         1 CLA      0.058300
     76 HMA2       81.6421   58.2994   35.7253 dc         1 CLA      0.058300
     77 HMA1       81.6168   59.1526   37.2553 dc         1 CLA      0.058300
     78 HED3       77.9871   54.2463   33.9449 dc         1 CLA      0.079300
     79 HED2       76.3825   53.3216   34.1704 dc         1 CLA      0.079300
     80 HED1       76.6954   54.1202   32.6435 dc         1 CLA      0.079300
     81 HBC3       73.3389   56.4263   42.6437 dc         1 CLA      0.016300
     82 HBC2       71.6170   56.2244   43.0189 dc         1 CLA      0.016300
     83 HBC1       72.2654   56.2439   41.3557 dc         1 CLA      0.016300
     84 HBB2       79.9228   62.3950   45.0921 da         1 CLA      0.183000
     85 HBB1       80.8718   62.3369   43.5181 da         1 CLA      0.183000
     86 HBA2       79.7887   60.6388   32.1677 dc         1 CLA      0.029400
     87 HBA1       80.8118   60.3384   33.5445 dc         1 CLA      0.029400
     88 HAC2       71.7303   58.4210   43.3915 dc         1 CLA      0.029300
     89 HAC1       71.2121   58.3264   41.6976 dc         1 CLA      0.029300
     90 HAA2       78.0043   59.5176   33.3011 dc         1 CLA      0.028700
     91 HAA1       78.3699   61.0266   34.1153 dc         1 CLA      0.028700
     92 H203       84.8423   56.3960   47.2960 dc         1 CLA      0.065600
     93 H202       83.1233   56.6624   47.6271 dc         1 CLA      0.065600
     94 H201       83.6658   55.3565   46.5659 dc         1 CLA      0.065600
     95 H193       84.1672   59.4834   45.2599 dc         1 CLA      0.065600
     96 H192       83.4500   59.2108   46.8405 dc         1 CLA      0.065600
     97 H191       85.2155   58.9681   46.6940 dc         1 CLA      0.065600
     98 H172       81.7063   57.9450   45.5001 dc         1 CLA      0.027600
     99 H171       82.1619   56.3505   44.8758 dc         1 CLA      0.027600
    100 H162       83.4037   58.2368   43.1449 dc         1 CLA      0.002900
    101 H161       81.9075   59.0503   43.7207 dc         1 CLA      0.002900
    102 H152       80.6541   57.2922   42.7581 dc         1 CLA      0.029100
    103 H151       81.9110   56.1769   42.8169 dc         1 CLA      0.029100
    104 H143       81.9281   59.5878   40.9896 dc         1 CLA      0.063600
    105 H142       81.7677   58.6975   39.4230 dc         1 CLA      0.063600
    106 H141       80.3932   58.6408   40.5863 dc         1 CLA      0.063600
    107 H122       83.4799   55.9036   41.0549 dc         1 CLA      0.032500
    108 H121       84.1762   57.6298   41.0226 dc         1 CLA      0.032500
    109 H112       83.3528   57.4454   38.4917 dc         1 CLA      0.006600
    110 H111       82.8809   55.7734   38.9030 dc         1 CLA      0.006600
    111 H102       85.1758   55.0521   39.0037 dc         1 CLA      0.024100
    112 H101       85.6679   56.7662   39.0943 dc         1 CLA      0.024100
    113 HHD        72.1754   57.8838   39.6096 da         1 CLA      0.174300
    114 HHC        76.2071   61.1518   43.0288 da         1 CLA      0.136800
    115 HHB        80.6035   61.2581   38.5063 da         1 CLA      0.138300
    116 HBD        76.0502   58.5466   33.5994 dc         1 CLA      0.107700
    117 HAB        77.8456   61.9287   43.9508 da         1 CLA      0.155200
    118 H93        87.2171   56.1195   35.8346 dc         1 CLA      0.069500
    119 H92        87.3944   57.0750   37.3603 dc         1 CLA      0.069500
    120 H91        87.2117   55.3444   37.2261 dc         1 CLA      0.069500
    121 H8         84.9690   57.2389   36.9442 dc         1 CLA      0.029300
    122 H72        83.5874   55.2442   36.3531 dc         1 CLA      0.044400
    123 H71        84.9784   54.2471   36.2402 dc         1 CLA      0.044400
    124 H62        85.7403   55.5795   34.1596 dc         1 CLA      0.015600
    125 H61        84.3317   56.7224   34.5722 dc         1 CLA      0.015600
    126 H52        84.1130   53.7119   33.9751 dc         1 CLA      0.033200
    127 H51        83.7694   54.9203   32.7959 dc         1 CLA      0.033200
    128 H43        80.5983   53.4407   34.3267 dc         1 CLA      0.037000
    129 H42        81.9976   52.7588   33.4825 dc         1 CLA      0.037000
    130 H41        82.0092   52.9589   35.2588 dc         1 CLA      0.037000
    131 H3A        80.3451   60.6182   35.8794 dc         1 CLA      0.041100
    132 H2A        79.2314   58.2341   35.0107 dc         1 CLA      0.083100
    133 H2         81.3188   56.4379   34.8264 da         1 CLA      0.180900
    134 H18        84.4860   57.1358   45.0169 dc         1 CLA     -0.003900
    135 H13        81.3597   56.4192   40.7076 dc         1 CLA      0.019700
    136 H12        80.2883   56.0082   32.2971 dc         1 CLA      0.120400
    137 H11        81.8852   56.4314   31.8173 dc         1 CLA      0.120400
    138 C1         68.4590   60.8274   49.7278 Z1         2 LUT      0.509236
    139 C2         68.0782   61.4747   51.1340 Z2         2 LUT     -0.434695
    140 C3         66.6933   61.9803   51.2141 Z3         2 LUT      0.437453
    141 O3         66.3800   62.6491   52.4332 S1         2 LUT     -0.547129
    142 C4         66.3569   63.0138   50.0761 Z4         2 LUT     -0.468603
    143 C5         67.0035   62.6876   48.7375 Z5         2 LUT      0.279246
    144 C6         67.8910   61.6638   48.5481 Z6         2 LUT     -0.305473
    145 C7         68.6100   61.6161   47.2736 Z7         2 LUT      0.069402
    146 C8         69.6237   62.2876   46.6508 Z8         2 LUT     -0.191631
    147 C9         70.2216   62.1631   45.3218 Z9         2 LUT      0.196698
    148 C10        71.2525   63.0723   45.0222 Y1         2 LUT     -0.208611
    149 C11        72.0301   63.1450   43.7917 Y2         2 LUT      0.030784
    150 C12        73.2754   63.7829   43.7049 Y3         2 LUT     -0.220316
    151 C13        74.2209   63.7892   42.6247 Y4         2 LUT      0.215937
    152 C14        75.4425   64.3253   42.7730 Y5         2 LUT     -0.185793
    153 C15        76.5091   64.5691   41.7984 Y6         2 LUT     -0.057835
    154 C16        67.8602   59.4162   49.6581 Y7         2 LUT     -0.405615
    155 C17        70.0337   60.5389   49.7294 Y7         2 LUT     -0.405615
    156 C18        66.6490   63.8404   47.8285 Y9         2 LUT     -0.369639
    157 C19        69.7506   61.2699   44.2666 W1         2 LUT     -0.333362
    158 C20        73.7423   63.4413   41.1996 W2         2 LUT     -0.323439
    159 C21        87.7170   66.0350   34.9951 Z1         2 LUT      0.406104
    160 C22        88.2475   65.7066   33.6205 Z2         2 LUT     -0.404965
    161 C23        88.2260   66.8486   32.5835 Z3         2 LUT      0.391255
    162 O23        88.7592   66.3449   31.3686 S1         2 LUT     -0.528210
    163 C24        86.8864   67.6290   32.5971 W6         2 LUT     -0.258361
    164 C25        85.9580   67.5235   33.5600 Z5         2 LUT      0.133546
    165 C26        86.1767   66.5270   34.7613 W8         2 LUT     -0.147008
    166 C27        85.5240   67.0744   35.9627 Z7         2 LUT      0.023843
    167 C28        84.2491   66.9061   36.3474 Z8         2 LUT     -0.216987
    168 C29        83.5827   67.2502   37.5984 Z9         2 LUT      0.206524
    169 C30        82.4780   66.5935   38.0499 Y1         2 LUT     -0.215556
    170 C31        81.7981   66.6998   39.3199 Y2         2 LUT      0.025142
    171 C32        80.7599   65.9083   39.6874 Y3         2 LUT     -0.212209
    172 C33        79.8970   66.0768   40.8725 Y4         2 LUT      0.240937
    173 C34        78.6794   65.3680   40.9863 Y5         2 LUT     -0.218862
    174 C35        77.6130   65.3482   41.9514 Y6         2 LUT     -0.023547
    175 C36        88.5894   67.0973   35.5237 Y7         2 LUT     -0.393485
    176 C37        87.9705   64.8464   35.9028 Y7         2 LUT     -0.393485
    177 C38        84.6640   68.3257   33.5047 Y9         2 LUT     -0.387526
    178 C39        84.2280   68.3423   38.4600 W1         2 LUT     -0.322618
    179 C40        80.1564   67.0923   41.9949 W2         2 LUT     -0.358472
    180 H403       80.2458   68.0913   41.5702 R7         2 LUT      0.097720
    181 H402       79.5486   67.0624   42.9083 R7         2 LUT      0.097720
    182 H401       81.1090   67.0050   42.4996 R7         2 LUT      0.097720
    183 H393       83.3887   68.9110   38.8812 R4         2 LUT      0.082505
    184 H392       84.7085   67.9415   39.3108 R4         2 LUT      0.082505
    185 H391       84.8959   69.1092   38.0352 R4         2 LUT      0.082505
    186 H383       83.6993   67.6721   33.5225 R1         2 LUT      0.104030
    187 H382       84.5818   68.9347   34.4681 R1         2 LUT      0.104030
    188 H381       84.7207   68.9685   32.6220 R1         2 LUT      0.104030
    189 H373       87.2852   64.0181   35.7496 T4         2 LUT      0.089537
    190 H372       89.0573   64.5011   35.8491 T4         2 LUT      0.089537
    191 H371       87.7703   65.1824   36.9967 T4         2 LUT      0.089537
    192 H363       88.2391   67.3948   36.5424 T4         2 LUT      0.089537
    193 H362       89.5774   66.7374   35.6438 T4         2 LUT      0.089537
    194 H361       88.6933   68.0515   34.9448 T4         2 LUT      0.089537
    195 H222       89.3249   65.3109   33.7447 U2         2 LUT      0.127376
    196 H221       87.6315   64.9592   33.1357 U2         2 LUT      0.127376
    197 H203       72.6034   63.7296   41.1651 R7         2 LUT      0.087068
    198 H202       74.1363   64.0436   40.3803 R7         2 LUT      0.087068
    199 H201       73.7906   62.3709   40.9586 R7         2 LUT      0.087068
    200 H193       68.9792   61.6901   43.5520 R4         2 LUT      0.089716
    201 H192       70.5759   61.0822   43.5504 R4         2 LUT      0.089716
    202 H191       69.2635   60.3852   44.6870 R4         2 LUT      0.089716
    203 H183       65.6354   64.2193   48.1605 R1         2 LUT      0.094572
    204 H182       67.2969   64.6846   47.8739 R1         2 LUT      0.094572
    205 H181       66.6622   63.6124   46.7724 R1         2 LUT      0.094572
    206 H173       70.3124   60.2635   50.7518 T4         2 LUT      0.093752
    207 H172       70.2050   59.6748   49.1054 T4         2 LUT      0.093752
    208 H171       70.4630   61.4264   49.3390 T4         2 LUT      0.093752
    209 H163       68.1956   58.6478   50.3779 T4         2 LUT      0.093752
    210 H162       66.7774   59.4454   49.8157 T4         2 LUT      0.093752
    211 H161       68.0266   58.8918   48.6895 T4         2 LUT      0.093752
    212 HO3        66.2718   62.0200   53.1511 Q1         2 LUT      0.300121
    213 H8         69.9445   63.2028   47.1358 U7         2 LUT      0.080784
    214 H7         68.3313   60.7750   46.6375 U6         2 LUT      0.042190
    215 H42        65.2858   63.2611   50.0425 U5         2 LUT      0.145166
    216 H41        66.5184   64.1079   50.2711 U5         2 LUT      0.145166
    217 H35        77.6459   65.9823   42.8705 T3         2 LUT      0.077919
    218 H34        78.4681   64.7741   40.0745 T2         2 LUT      0.073626
    219 H32        80.4740   65.2615   38.8955 T1         2 LUT      0.092510
    220 H31        82.1298   67.4837   40.0133 U9         2 LUT      0.070048
    221 H30        82.2174   65.7782   37.4009 U8         2 LUT      0.085442
    222 H3         66.1274   61.0124   51.2348 U3         2 LUT     -0.031596
    223 H28        83.5228   66.4233   35.5760 U7         2 LUT      0.084728
    224 H27        86.0861   67.5363   36.7278 U6         2 LUT      0.087291
    225 H26        85.6180   65.6151   34.4992 Q6         2 LUT      0.075325
    226 H24        86.7753   68.3346   31.8223 Q5         2 LUT      0.094482
    227 H23        89.0204   67.5005   32.9351 U3         2 LUT     -0.024869
    228 H22        68.2280   60.7373   51.8902 U2         2 LUT      0.127376
    229 H21        68.6432   62.3909   51.3063 U2         2 LUT      0.127376
    230 H15        76.4622   63.9781   40.8198 T3         2 LUT      0.093200
    231 H14        75.7132   64.5620   43.8121 T2         2 LUT      0.068865
    232 H12        73.6343   64.3238   44.6047 T1         2 LUT      0.095507
    233 H11        71.7686   62.5837   42.9273 U9         2 LUT      0.068930
    234 H10        71.5641   63.8055   45.7805 U8         2 LUT      0.083911
    235 H1         88.2143   66.2577   30.6017 Q1         2 LUT      0.297311
@<TRIPOS>BOND
    1     6     1 1
    2     7     2 1
    3     8     3 1
    4     9     4 1
    5    11     4 1
    6    12     6 1
    7    13     9 1
    8    16     9 1
    9    25     5 1
   10    25    16 1
   11    26    10 1
   12    26    17 1
   13    27    18 1
   14    28    14 1
   15    28    19 1
   16    29    12 1
   17    30    13 1
   18    31    24 1
   19    32     1 1
   20    32    25 1
   21    33    21 1
   22    33    26 1
   23    34    22 1
   24    34    27 1
   25    35    23 1
   26    35    28 1
   27    36    12 1
   28    36    24 1
   29    37    13 1
   30    37    15 1
   31    38    31 1
   32    39    20 1
   33    39    32 1
   34    40     2 1
   35    40    33 1
   36    41     3 1
   37    41    34 1
   38    42     4 1
   39    42    35 1
   40    43    38 1
   41    44     5 1
   42    44    17 1
   43    44    39 1
   44    45    10 1
   45    45    18 1
   46    45    40 1
   47    46    19 1
   48    46    41 1
   49    47    14 1
   50    47    16 1
   51    47    42 1
   52    48    38 1
   53    49    48 1
   54    50    49 1
   55    51    50 1
   56    52    51 1
   57    53    51 1
   58    54    53 1
   59    55    54 1
   60    56    55 1
   61    57    56 1
   62    58    56 1
   63    59    58 1
   64    60    59 1
   65    61    60 1
   66    62    61 1
   67    63    61 1
   68    64    27 1
   69    64    46 1
   70    65     5 1
   71    65    10 1
   72    65    64 1
   73    65    14 1
   74    66    23 1
   75    67    23 1
   76    68    23 1
   77    69    22 1
   78    70    22 1
   79    71    22 1
   80    72    21 1
   81    73    21 1
   82    74    21 1
   83    75    20 1
   84    76    20 1
   85    77    20 1
   86    78    15 1
   87    79    15 1
   88    80    15 1
   89    81     8 1
   90    82     8 1
   91    83     8 1
   92    84     7 1
   93    85     7 1
   94    86     6 1
   95    87     6 1
   96    88     3 1
   97    89     3 1
   98    90     1 1
   99    91     1 1
  100    92    63 1
  101    93    63 1
  102    94    63 1
  103    95    62 1
  104    96    62 1
  105    97    62 1
  106    98    60 1
  107    99    60 1
  108   100    59 1
  109   101    59 1
  110   102    58 1
  111   103    58 1
  112   104    57 1
  113   105    57 1
  114   106    57 1
  115   107    55 1
  116   108    55 1
  117   109    54 1
  118   110    54 1
  119   111    53 1
  120   112    53 1
  121   113    19 1
  122   114    18 1
  123   115    17 1
  124   116     9 1
  125   117     2 1
  126   118    52 1
  127   119    52 1
  128   120    52 1
  129   121    51 1
  130   122    50 1
  131   123    50 1
  132   124    49 1
  133   125    49 1
  134   126    48 1
  135   127    48 1
  136   128    43 1
  137   129    43 1
  138   130    43 1
  139   131    39 1
  140   132    32 1
  141   133    31 1
  142   134    61 1
  143   135    56 1
  144   136    24 1
  145   137    24 1
  146   139   138 1
  147   140   139 1
  148   141   140 1
  149   142   140 1
  150   143   142 1
  151   144   138 1
  152   144   143 1
  153   145   144 1
  154   146   145 1
  155   147   146 1
  156   148   147 1
  157   149   148 1
  158   150   149 1
  159   151   150 1
  160   152   151 1
  161   153   152 1
  162   154   138 1
  163   155   138 1
  164   156   143 1
  165   157   147 1
  166   158   151 1
  167   160   159 1
  168   161   160 1
  169   162   161 1
  170   163   161 1
  171   164   163 1
  172   165   159 1
  173   165   164 1
  174   166   165 1
  175   167   166 1
  176   168   167 1
  177   169   168 1
  178   170   169 1
  179   171   170 1
  180   172   171 1
  181   173   172 1
  182   174   153 1
  183   174   173 1
  184   175   159 1
  185   176   159 1
  186   177   164 1
  187   178   168 1
  188   179   172 1
  189   180   179 1
  190   181   179 1
  191   182   179 1
  192   183   178 1
  193   184   178 1
  194   185   178 1
  195   186   177 1
  196   187   177 1
  197   188   177 1
  198   189   176 1
  199   190   176 1
  200   191   176 1
  201   192   175 1
  202   193   175 1
  203   194   175 1
  204   195   160 1
  205   196   160 1
  206   197   158 1
  207   198   158 1
  208   199   158 1
  209   200   157 1
  210   201   157 1
  211   202   157 1
  212   203   156 1
  213   204   156 1
  214   205   156 1
  215   206   155 1
  216   207   155 1
  217   208   155 1
  218   209   154 1
  219   210   154 1
  220   211   154 1
  221   212   141 1
  222   213   146 1
  223   214   145 1
  224   215   142 1
  225   216   142 1
  226   217   174 1
  227   218   173 1
  228   219   171 1
  229   220   170 1
  230   221   169 1
  231   222   140 1
  232   223   167 1
  233   224   166 1
  234   225   165 1
  235   226   163 1
  236   227   161 1
  237   228   139 1
  238   229   139 1
  239   230   153 1
  240   231   152 1
  241   232   150 1
  242   233   149 1
  243   234   148 1
  244   235   162 1
  245   65    153 1
  246   65    174 1
@<TRIPOS>SUBSTRUCTURE
      1 CLA               1 ****               0 ****  **** 
      2 LUT             138 ****               0 ****  **** 
