@<TRIPOS>MOLECULE
Cpptraj generated mol2 file.
  235   246     2     0     0
SMALL
USER_CHARGES


@<TRIPOS>ATOM
      1 CAA        79.9077   59.0488   33.9090 a2         1 CLA     -0.055900
      2 CAB        79.5700   62.9614   42.8931 c8         1 CLA     -0.148500
      3 CAC        73.0710   58.3474   42.5894 a2         1 CLA     -0.012600
      4 CAD        75.8337   56.3370   35.1186 ck         1 CLA      0.398800
      5 NA         78.8129   59.3560   37.3993 ns         1 CLA     -0.225500
      6 CBA        81.1355   58.9203   33.0731 a2         1 CLA     -0.135000
      7 CBB        80.5084   63.7270   43.3416 c0         1 CLA     -0.395200
      8 CBC        73.1913   56.8598   42.5364 a3         1 CLA     -0.037700
      9 CBD        77.2627   57.0057   34.7840 a1         1 CLA     -0.053900
     10 NB         78.6460   60.7260   40.0673 nm         1 CLA     -0.295700
     11 OBD        75.1605   55.7386   34.2657 o2         1 CLA     -0.494600
     12 CGA        81.6450   57.5425   32.6306 c4         1 CLA      0.827000
     13 CGD        78.1995   55.9143   34.3983 c4         1 CLA      0.655300
     14 ND         76.0786   58.1643   38.0485 nm         1 CLA     -0.291600
     15 CED        79.1138   53.6838   35.0188 a3         1 CLA      0.005400
     16 CHA        77.6059   57.6698   36.0906 cs         1 CLA     -0.123800
     17 CHB        80.5220   60.8554   38.4302 aa         1 CLA     -0.291900
     18 CHC        77.2890   61.0183   42.0470 aa         1 CLA     -0.090400
     19 CHD        74.2486   58.0364   39.6274 aa         1 CLA     -0.052000
     20 CMA        82.3286   58.9207   36.7709 a3         1 CLA     -0.230700
     21 CMB        81.9651   62.6450   40.5440 a3         1 CLA     -0.180800
     22 CMC        74.9914   60.4192   44.0991 a3         1 CLA     -0.134000
     23 CMD        72.9835   56.2930   37.2874 a3         1 CLA     -0.141100
     24 C1         82.5616   55.5153   33.5769 a2         1 CLA      0.023000
     25 C1A        78.7372   58.5152   36.2702 ac         1 CLA     -0.015100
     26 C1B        79.9283   61.2507   39.6316 cr         1 CLA      0.054700
     27 C1C        76.2182   60.1741   41.7956 cn         1 CLA     -0.005600
     28 C1D        74.8549   57.7464   38.3699 ap         1 CLA     -0.047300
     29 O1A        81.4624   56.9891   31.5536 o2         1 CLA     -0.610800
     30 O1D        78.9090   55.9499   33.4358 o2         1 CLA     -0.558200
     31 C2         83.3944   55.1388   34.7218 c8         1 CLA     -0.325100
     32 C2A        80.0004   58.5751   35.3916 a1         1 CLA      0.098600
     33 C2B        80.5375   62.1156   40.6343 cb         1 CLA      0.088500
     34 C2C        75.1366   59.9082   42.6831 cb         1 CLA      0.053700
     35 C2D        74.3028   56.9194   37.2870 cb         1 CLA      0.058900
     36 O2A        82.3158   56.9607   33.6884 o1         1 CLA     -0.437200
     37 O2D        78.2255   54.8722   35.2742 o1         1 CLA     -0.357600
     38 C3         84.5719   54.5208   34.7882 c5         1 CLA      0.031200
     39 C3A        80.9871   59.5219   36.2761 a1         1 CLA      0.166800
     40 C3B        79.5719   62.1830   41.6633 cb         1 CLA      0.035000
     41 C3C        74.2725   59.0644   41.9558 cb         1 CLA     -0.089900
     42 C3D        75.4090   56.8042   36.3751 cb         1 CLA     -0.035900
     43 C4         84.7182   53.0404   34.9757 a3         1 CLA     -0.053300
     44 C4A        80.0324   59.9992   37.4115 ac         1 CLA      0.001800
     45 C4B        78.4554   61.3012   41.2975 cn         1 CLA     -0.020900
     46 C4C        74.7556   58.8745   40.6316 cr         1 CLA     -0.044400
     47 C4D        76.4785   57.5845   36.9342 c6         1 CLA     -0.046000
     48 C5         85.8020   55.4658   34.6188 a2         1 CLA     -0.070400
     49 C6         86.0021   56.6566   35.5234 a2         1 CLA      0.043900
     50 C7         86.3870   56.1770   36.9921 a2         1 CLA     -0.150000
     51 C8         87.9164   56.3450   37.4828 a1         1 CLA      0.064200
     52 C9         88.7506   55.3119   36.7341 a3         1 CLA     -0.259300
     53 C10        88.0714   56.2546   39.0431 a2         1 CLA     -0.071900
     54 C11        87.7096   57.5399   39.8478 a2         1 CLA      0.014500
     55 C12        88.1071   57.2942   41.3497 a2         1 CLA     -0.112100
     56 C13        87.4453   58.3262   42.3591 a1         1 CLA      0.089200
     57 C14        88.2487   59.7266   42.1308 a3         1 CLA     -0.239100
     58 C15        87.6250   57.8410   43.7913 a2         1 CLA     -0.102200
     59 C16        86.4218   58.2883   44.6463 a2         1 CLA      0.023900
     60 C17        86.6124   57.9528   46.0780 a2         1 CLA     -0.105700
     61 C18        85.4090   58.1736   47.0005 a1         1 CLA      0.206800
     62 C19        84.3243   57.0984   46.8048 a3         1 CLA     -0.280100
     63 C20        85.8910   58.1970   48.4349 a3         1 CLA     -0.280100
     64 NC         76.0139   59.4809   40.5894 nx         1 CLA     -0.309200
     65 MG         77.2847   59.5769   38.9451 mg         1 CLA      0.895000
     66 HMD3       73.0011   55.4617   37.9772 dc         1 CLA      0.064300
     67 HMD2       72.2217   57.0260   37.6195 dc         1 CLA      0.064300
     68 HMD1       72.6831   55.9336   36.2441 dc         1 CLA      0.064300
     69 HMC3       74.0859   60.9179   44.2389 dc         1 CLA      0.052100
     70 HMC2       74.9321   59.5462   44.8120 dc         1 CLA      0.052100
     71 HMC1       75.7641   61.1200   44.3988 dc         1 CLA      0.052100
     72 HMB3       82.4776   62.3332   39.6853 dc         1 CLA      0.063600
     73 HMB2       81.9010   63.6976   40.4665 dc         1 CLA      0.063600
     74 HMB1       82.5332   62.3684   41.4030 dc         1 CLA      0.063600
     75 HMA3       82.0784   58.0686   37.3565 dc         1 CLA      0.058300
     76 HMA2       82.9598   58.6676   35.9076 dc         1 CLA      0.058300
     77 HMA1       82.8118   59.6791   37.4312 dc         1 CLA      0.058300
     78 HED3       80.1581   53.8703   35.3299 dc         1 CLA      0.079300
     79 HED2       78.7021   52.8925   35.6459 dc         1 CLA      0.079300
     80 HED1       79.0056   53.4359   33.9394 dc         1 CLA      0.079300
     81 HBC3       73.3221   56.4884   41.5140 dc         1 CLA      0.016300
     82 HBC2       74.1011   56.4151   43.1519 dc         1 CLA      0.016300
     83 HBC1       72.3059   56.4218   42.9766 dc         1 CLA      0.016300
     84 HBB2       80.6108   64.0690   44.3880 da         1 CLA      0.183000
     85 HBB1       81.4548   63.8704   42.8142 da         1 CLA      0.183000
     86 HBA2       81.1149   59.3171   32.0830 dc         1 CLA      0.029400
     87 HBA1       81.9252   59.4291   33.5742 dc         1 CLA      0.029400
     88 HAC2       72.9785   58.5501   43.6499 dc         1 CLA      0.029300
     89 HAC1       72.1475   58.7697   42.2429 dc         1 CLA      0.029300
     90 HAA2       79.0793   58.5171   33.4347 dc         1 CLA      0.028700
     91 HAA1       79.6731   60.0913   33.7987 dc         1 CLA      0.028700
     92 H203       85.0899   58.4561   49.1114 dc         1 CLA      0.065600
     93 H202       86.3412   57.2293   48.5699 dc         1 CLA      0.065600
     94 H201       86.7140   58.9776   48.5150 dc         1 CLA      0.065600
     95 H193       84.8554   56.0946   46.8429 dc         1 CLA      0.065600
     96 H192       83.6543   57.1324   47.6582 dc         1 CLA      0.065600
     97 H191       83.8614   57.0732   45.8586 dc         1 CLA      0.065600
     98 H172       86.9455   56.9019   46.0545 dc         1 CLA      0.027600
     99 H171       87.4570   58.5165   46.5024 dc         1 CLA      0.027600
    100 H162       86.1799   59.3847   44.4180 dc         1 CLA      0.002900
    101 H161       85.6366   57.7180   44.2208 dc         1 CLA      0.002900
    102 H152       87.7858   56.7193   43.8397 dc         1 CLA      0.029100
    103 H151       88.4512   58.3328   44.2877 dc         1 CLA      0.029100
    104 H143       88.0045   60.0531   41.1605 dc         1 CLA      0.063600
    105 H142       87.9510   60.5015   42.8392 dc         1 CLA      0.063600
    106 H141       89.3465   59.5549   42.2346 dc         1 CLA      0.063600
    107 H122       87.7427   56.3085   41.6020 dc         1 CLA      0.032500
    108 H121       89.1776   57.3429   41.4598 dc         1 CLA      0.032500
    109 H112       88.1465   58.4268   39.4838 dc         1 CLA      0.006600
    110 H111       86.6465   57.6179   39.8423 dc         1 CLA      0.006600
    111 H102       87.4168   55.4491   39.3378 dc         1 CLA      0.024100
    112 H101       89.1445   56.1623   39.3556 dc         1 CLA      0.024100
    113 HHD        73.2724   57.5955   39.7410 da         1 CLA      0.174300
    114 HHC        77.4185   61.1939   43.1288 da         1 CLA      0.136800
    115 HHB        81.4850   61.1619   38.2323 da         1 CLA      0.138300
    116 HBD        77.0111   57.7059   34.0159 dc         1 CLA      0.107700
    117 HAB        78.6649   62.9147   43.5208 da         1 CLA      0.155200
    118 H93        88.3334   54.2987   36.7318 dc         1 CLA      0.069500
    119 H92        88.7353   55.6751   35.7474 dc         1 CLA      0.069500
    120 H91        89.8823   55.2694   36.9700 dc         1 CLA      0.069500
    121 H8         88.3083   57.3178   37.2384 dc         1 CLA      0.029300
    122 H72        85.7778   56.8444   37.6356 dc         1 CLA      0.044400
    123 H71        86.0777   55.1661   37.2545 dc         1 CLA      0.044400
    124 H62        86.6963   57.3147   35.0310 dc         1 CLA      0.015600
    125 H61        85.0490   57.1682   35.5488 dc         1 CLA      0.015600
    126 H52        86.7388   54.8648   34.7154 dc         1 CLA      0.033200
    127 H51        85.6744   55.8345   33.6077 dc         1 CLA      0.033200
    128 H43        84.9793   52.7888   35.9917 dc         1 CLA      0.037000
    129 H42        83.7144   52.6324   34.9485 dc         1 CLA      0.037000
    130 H41        85.1675   52.5775   34.0783 dc         1 CLA      0.037000
    131 H3A        81.2172   60.4059   35.7133 dc         1 CLA      0.041100
    132 H2A        80.2937   57.5368   35.4679 dc         1 CLA      0.083100
    133 H2         82.9659   55.5490   35.6661 da         1 CLA      0.180900
    134 H18        84.9348   59.2227   46.9028 dc         1 CLA     -0.003900
    135 H13        86.4435   58.4547   42.0462 dc         1 CLA      0.019700
    136 H12        81.6384   54.9474   33.4649 dc         1 CLA      0.120400
    137 H11        82.9698   55.2288   32.6432 dc         1 CLA      0.120400
    138 C1         69.6209   61.6853   49.9492 Z1         2 LUT      0.509236
    139 C2         68.1316   61.4833   50.2842 Z2         2 LUT     -0.434695
    140 C3         67.3585   62.6812   50.6756 Z3         2 LUT      0.437453
    141 O3         67.4256   63.0255   52.0642 S1         2 LUT     -0.547129
    142 C4         67.7490   63.8881   49.8263 Z4         2 LUT     -0.468603
    143 C5         68.8047   63.7178   48.6599 Z5         2 LUT      0.279246
    144 C6         69.6700   62.6606   48.7505 Z6         2 LUT     -0.305473
    145 C7         70.1713   62.1367   47.4729 Z7         2 LUT      0.069402
    146 C8         71.0972   62.6822   46.6444 Z8         2 LUT     -0.191631
    147 C9         71.6311   62.3480   45.3376 Z9         2 LUT      0.196698
    148 C10        72.5409   63.2986   44.7528 Y1         2 LUT     -0.208611
    149 C11        73.1772   63.2285   43.4354 Y2         2 LUT      0.030784
    150 C12        74.1803   64.1132   43.0845 Y3         2 LUT     -0.220316
    151 C13        75.1758   64.0962   41.9750 Y4         2 LUT      0.215937
    152 C14        76.3617   64.8885   42.0798 Y5         2 LUT     -0.185793
    153 C15        77.4896   64.9562   41.1463 Y6         2 LUT     -0.057835
    154 C16        70.2065   60.2793   49.7602 Y7         2 LUT     -0.405615
    155 C17        70.2816   62.2213   51.2904 Y7         2 LUT     -0.405615
    156 C18        68.3192   64.3764   47.3856 Y9         2 LUT     -0.369639
    157 C19        71.1748   61.0227   44.5921 W1         2 LUT     -0.333362
    158 C20        74.8124   63.2126   40.7417 W2         2 LUT     -0.323439
    159 C21        88.9336   65.8735   35.1104 Z1         2 LUT      0.406104
    160 C22        89.7440   65.6334   33.8470 Z2         2 LUT     -0.404965
    161 C23        89.8462   66.7481   32.6549 Z3         2 LUT      0.391255
    162 O23        90.8342   66.3378   31.6510 S1         2 LUT     -0.528210
    163 C24        88.4504   67.4203   32.4045 W6         2 LUT     -0.258361
    164 C25        87.3912   67.1457   33.2190 Z5         2 LUT      0.133546
    165 C26        87.4540   66.3138   34.5702 W8         2 LUT     -0.147008
    166 C27        86.7796   67.1243   35.6880 Z7         2 LUT      0.023843
    167 C28        85.5512   66.7612   36.1790 Z8         2 LUT     -0.216987
    168 C29        84.8194   67.3094   37.2840 Z9         2 LUT      0.206524
    169 C30        83.7312   66.6510   37.8026 Y1         2 LUT     -0.215556
    170 C31        82.8466   66.9541   38.9161 Y2         2 LUT      0.025142
    171 C32        81.8790   66.1142   39.4317 Y3         2 LUT     -0.212209
    172 C33        81.0071   66.4132   40.5136 Y4         2 LUT      0.240937
    173 C34        79.8455   65.7408   40.5151 Y5         2 LUT     -0.218862
    174 C35        78.7080   65.6090   41.3657 Y6         2 LUT     -0.023547
    175 C36        89.7265   66.8961   35.9826 Y7         2 LUT     -0.393485
    176 C37        88.9300   64.6042   35.9098 Y7         2 LUT     -0.393485
    177 C38        86.0351   67.5457   32.8282 Y9         2 LUT     -0.387526
    178 C39        85.2040   68.6832   37.7203 W1         2 LUT     -0.322618
    179 C40        81.4332   67.4587   41.5148 W2         2 LUT     -0.358472
    180 H403       80.7279   67.4765   42.3922 R7         2 LUT      0.097720
    181 H402       82.4221   67.3094   41.9193 R7         2 LUT      0.097720
    182 H401       81.4686   68.5139   41.1751 R7         2 LUT      0.097720
    183 H393       84.3349   69.3017   37.6963 R4         2 LUT      0.082505
    184 H392       85.5589   68.6587   38.7812 R4         2 LUT      0.082505
    185 H391       85.9547   69.1405   37.1379 R4         2 LUT      0.082505
    186 H383       85.2395   66.7606   32.8535 R1         2 LUT      0.104030
    187 H382       85.6936   68.4152   33.3608 R1         2 LUT      0.104030
    188 H381       86.1157   67.9668   31.8168 R1         2 LUT      0.104030
    189 H373       89.9610   64.4065   36.2507 T4         2 LUT      0.089537
    190 H372       88.2696   64.6236   36.7710 T4         2 LUT      0.089537
    191 H371       88.5815   63.8033   35.3117 T4         2 LUT      0.089537
    192 H363       89.9785   67.8151   35.4224 T4         2 LUT      0.089537
    193 H362       89.2963   67.1863   36.9760 T4         2 LUT      0.089537
    194 H361       90.6968   66.5292   36.2205 T4         2 LUT      0.089537
    195 H222       90.7324   65.1914   33.9798 U2         2 LUT      0.127376
    196 H221       89.2831   64.7685   33.4189 U2         2 LUT      0.127376
    197 H203       75.6175   62.5924   40.4652 R7         2 LUT      0.087068
    198 H202       73.9621   62.5911   40.9805 R7         2 LUT      0.087068
    199 H201       74.6658   63.9269   39.9105 R7         2 LUT      0.087068
    200 H193       71.6033   60.8953   43.6406 R4         2 LUT      0.089716
    201 H192       71.6191   60.1185   45.1278 R4         2 LUT      0.089716
    202 H191       70.0641   61.0441   44.3787 R4         2 LUT      0.089716
    203 H183       68.8052   64.0911   46.4797 R1         2 LUT      0.094572
    204 H182       67.2564   64.0497   47.3119 R1         2 LUT      0.094572
    205 H181       68.4321   65.4578   47.4485 R1         2 LUT      0.094572
    206 H173       69.9694   61.6394   52.1883 T4         2 LUT      0.093752
    207 H172       71.4198   62.1108   51.3197 T4         2 LUT      0.093752
    208 H171       69.9836   63.2281   51.4886 T4         2 LUT      0.093752
    209 H163       71.1896   60.3760   49.3332 T4         2 LUT      0.093752
    210 H162       70.1583   59.6240   50.5973 T4         2 LUT      0.093752
    211 H161       69.6885   59.7035   49.0514 T4         2 LUT      0.093752
    212 HO3        67.0336   62.3909   52.7149 Q1         2 LUT      0.300121
    213 H8         71.1856   63.7277   47.0326 U7         2 LUT      0.080784
    214 H7         69.9025   61.1129   47.1823 U6         2 LUT      0.042190
    215 H42        66.8678   64.2635   49.3483 U5         2 LUT      0.145166
    216 H41        68.0723   64.7781   50.3899 U5         2 LUT      0.145166
    217 H35        78.6122   66.0839   42.3104 T3         2 LUT      0.077919
    218 H34        79.7770   64.9126   39.8289 T2         2 LUT      0.073626
    219 H32        81.6414   65.2052   38.8272 T1         2 LUT      0.092510
    220 H31        83.0533   67.8793   39.4230 U9         2 LUT      0.070048
    221 H30        83.4511   65.6681   37.3476 U8         2 LUT      0.085442
    222 H3         66.2885   62.4733   50.5832 U3         2 LUT     -0.031596
    223 H28        85.1268   65.9462   35.6293 U7         2 LUT      0.084728
    224 H27        87.3651   67.9398   36.1060 U6         2 LUT      0.087291
    225 H26        86.6997   65.5201   34.3380 Q6         2 LUT      0.075325
    226 H24        88.4011   68.0500   31.5457 Q5         2 LUT      0.094482
    227 H23        90.2892   67.5511   33.2296 U3         2 LUT     -0.024869
    228 H22        67.6614   61.0549   49.4333 U2         2 LUT      0.127376
    229 H21        68.1215   60.8080   51.1604 U2         2 LUT      0.127376
    230 H15        77.3729   64.4788   40.2019 T3         2 LUT      0.093200
    231 H14        76.4303   65.5940   42.8575 T2         2 LUT      0.068865
    232 H12        74.4702   64.8385   43.8809 T1         2 LUT      0.095507
    233 H11        72.8572   62.4138   42.7689 U9         2 LUT      0.068930
    234 H10        72.7144   64.1186   45.2898 U8         2 LUT      0.083911
    235 H1         90.4455   65.5644   31.2662 Q1         2 LUT      0.297311
@<TRIPOS>BOND
    1     6     1 1
    2     7     2 1
    3     8     3 1
    4     9     4 1
    5    11     4 1
    6    12     6 1
    7    13     9 1
    8    16     9 1
    9    25     5 1
   10    25    16 1
   11    26    10 1
   12    26    17 1
   13    27    18 1
   14    28    14 1
   15    28    19 1
   16    29    12 1
   17    30    13 1
   18    31    24 1
   19    32     1 1
   20    32    25 1
   21    33    21 1
   22    33    26 1
   23    34    22 1
   24    34    27 1
   25    35    23 1
   26    35    28 1
   27    36    12 1
   28    36    24 1
   29    37    13 1
   30    37    15 1
   31    38    31 1
   32    39    20 1
   33    39    32 1
   34    40     2 1
   35    40    33 1
   36    41     3 1
   37    41    34 1
   38    42     4 1
   39    42    35 1
   40    43    38 1
   41    44     5 1
   42    44    17 1
   43    44    39 1
   44    45    10 1
   45    45    18 1
   46    45    40 1
   47    46    19 1
   48    46    41 1
   49    47    14 1
   50    47    16 1
   51    47    42 1
   52    48    38 1
   53    49    48 1
   54    50    49 1
   55    51    50 1
   56    52    51 1
   57    53    51 1
   58    54    53 1
   59    55    54 1
   60    56    55 1
   61    57    56 1
   62    58    56 1
   63    59    58 1
   64    60    59 1
   65    61    60 1
   66    62    61 1
   67    63    61 1
   68    64    27 1
   69    64    46 1
   70    65     5 1
   71    65    10 1
   72    65    64 1
   73    65    14 1
   74    66    23 1
   75    67    23 1
   76    68    23 1
   77    69    22 1
   78    70    22 1
   79    71    22 1
   80    72    21 1
   81    73    21 1
   82    74    21 1
   83    75    20 1
   84    76    20 1
   85    77    20 1
   86    78    15 1
   87    79    15 1
   88    80    15 1
   89    81     8 1
   90    82     8 1
   91    83     8 1
   92    84     7 1
   93    85     7 1
   94    86     6 1
   95    87     6 1
   96    88     3 1
   97    89     3 1
   98    90     1 1
   99    91     1 1
  100    92    63 1
  101    93    63 1
  102    94    63 1
  103    95    62 1
  104    96    62 1
  105    97    62 1
  106    98    60 1
  107    99    60 1
  108   100    59 1
  109   101    59 1
  110   102    58 1
  111   103    58 1
  112   104    57 1
  113   105    57 1
  114   106    57 1
  115   107    55 1
  116   108    55 1
  117   109    54 1
  118   110    54 1
  119   111    53 1
  120   112    53 1
  121   113    19 1
  122   114    18 1
  123   115    17 1
  124   116     9 1
  125   117     2 1
  126   118    52 1
  127   119    52 1
  128   120    52 1
  129   121    51 1
  130   122    50 1
  131   123    50 1
  132   124    49 1
  133   125    49 1
  134   126    48 1
  135   127    48 1
  136   128    43 1
  137   129    43 1
  138   130    43 1
  139   131    39 1
  140   132    32 1
  141   133    31 1
  142   134    61 1
  143   135    56 1
  144   136    24 1
  145   137    24 1
  146   139   138 1
  147   140   139 1
  148   141   140 1
  149   142   140 1
  150   143   142 1
  151   144   138 1
  152   144   143 1
  153   145   144 1
  154   146   145 1
  155   147   146 1
  156   148   147 1
  157   149   148 1
  158   150   149 1
  159   151   150 1
  160   152   151 1
  161   153   152 1
  162   154   138 1
  163   155   138 1
  164   156   143 1
  165   157   147 1
  166   158   151 1
  167   160   159 1
  168   161   160 1
  169   162   161 1
  170   163   161 1
  171   164   163 1
  172   165   159 1
  173   165   164 1
  174   166   165 1
  175   167   166 1
  176   168   167 1
  177   169   168 1
  178   170   169 1
  179   171   170 1
  180   172   171 1
  181   173   172 1
  182   174   153 1
  183   174   173 1
  184   175   159 1
  185   176   159 1
  186   177   164 1
  187   178   168 1
  188   179   172 1
  189   180   179 1
  190   181   179 1
  191   182   179 1
  192   183   178 1
  193   184   178 1
  194   185   178 1
  195   186   177 1
  196   187   177 1
  197   188   177 1
  198   189   176 1
  199   190   176 1
  200   191   176 1
  201   192   175 1
  202   193   175 1
  203   194   175 1
  204   195   160 1
  205   196   160 1
  206   197   158 1
  207   198   158 1
  208   199   158 1
  209   200   157 1
  210   201   157 1
  211   202   157 1
  212   203   156 1
  213   204   156 1
  214   205   156 1
  215   206   155 1
  216   207   155 1
  217   208   155 1
  218   209   154 1
  219   210   154 1
  220   211   154 1
  221   212   141 1
  222   213   146 1
  223   214   145 1
  224   215   142 1
  225   216   142 1
  226   217   174 1
  227   218   173 1
  228   219   171 1
  229   220   170 1
  230   221   169 1
  231   222   140 1
  232   223   167 1
  233   224   166 1
  234   225   165 1
  235   226   163 1
  236   227   161 1
  237   228   139 1
  238   229   139 1
  239   230   153 1
  240   231   152 1
  241   232   150 1
  242   233   149 1
  243   234   148 1
  244   235   162 1
  245   65    153 1
  246   65    174 1
@<TRIPOS>SUBSTRUCTURE
      1 CLA               1 ****               0 ****  **** 
      2 LUT             138 ****               0 ****  **** 
