@<TRIPOS>MOLECULE
Cpptraj generated mol2 file.
  235   246     2     0     0
SMALL
USER_CHARGES


@<TRIPOS>ATOM
      1 CAA        79.7423   58.7634   33.5111 a2         1 CLA     -0.055900
      2 CAB        79.4244   62.3677   42.4640 c8         1 CLA     -0.148500
      3 CAC        72.7534   57.7331   41.9138 a2         1 CLA     -0.012600
      4 CAD        75.6560   55.8966   34.5256 ck         1 CLA      0.398800
      5 NA         78.6714   58.8626   36.9261 ns         1 CLA     -0.225500
      6 CBA        80.9714   58.7356   32.5814 a2         1 CLA     -0.135000
      7 CBB        80.2981   63.2827   42.8750 c0         1 CLA     -0.395200
      8 CBC        72.8780   56.2235   41.6139 a3         1 CLA     -0.037700
      9 CBD        76.9986   56.7069   34.2316 a1         1 CLA     -0.053900
     10 NB         78.4797   60.1910   39.6339 nm         1 CLA     -0.295700
     11 OBD        75.1191   55.0708   33.7978 o2         1 CLA     -0.494600
     12 CGA        81.7025   57.3816   32.3052 c4         1 CLA      0.827000
     13 CGD        78.1143   55.7250   33.9436 c4         1 CLA      0.655300
     14 ND         75.8862   57.9463   37.4036 nm         1 CLA     -0.291600
     15 CED        79.3357   53.7632   34.6403 a3         1 CLA      0.005400
     16 CHA        77.3230   57.4970   35.4574 cs         1 CLA     -0.123800
     17 CHB        80.3267   60.2058   38.0169 aa         1 CLA     -0.291900
     18 CHC        77.1761   60.3603   41.6608 aa         1 CLA     -0.090400
     19 CHD        74.0047   57.7198   39.0330 aa         1 CLA     -0.052000
     20 CMA        81.9826   58.3034   36.4786 a3         1 CLA     -0.230700
     21 CMB        81.5450   62.1871   39.8520 a3         1 CLA     -0.180800
     22 CMC        74.6955   59.7721   43.6008 a3         1 CLA     -0.134000
     23 CMD        72.8800   55.8343   36.8245 a3         1 CLA     -0.141100
     24 C1         83.1224   55.6483   33.0780 a2         1 CLA      0.023000
     25 C1A        78.5565   58.0972   35.8370 ac         1 CLA     -0.015100
     26 C1B        79.7298   60.6172   39.2171 cr         1 CLA      0.054700
     27 C1C        76.0483   59.5828   41.3252 cn         1 CLA     -0.005600
     28 C1D        74.6425   57.4366   37.8277 ap         1 CLA     -0.047300
     29 O1A        81.4370   56.7304   31.2876 o2         1 CLA     -0.610800
     30 O1D        78.7519   55.6976   32.9463 o2         1 CLA     -0.558200
     31 C2         83.8441   55.4701   34.4010 c8         1 CLA     -0.325100
     32 C2A        79.8754   58.1712   34.9701 a1         1 CLA      0.098600
     33 C2B        80.2899   61.5060   40.1265 cb         1 CLA      0.088500
     34 C2C        74.8676   59.3049   42.1996 cb         1 CLA      0.053700
     35 C2D        74.1278   56.5914   36.7659 cb         1 CLA      0.058900
     36 O2A        82.4889   56.9888   33.3609 o1         1 CLA     -0.437200
     37 O2D        78.3162   54.8035   34.9252 o1         1 CLA     -0.357600
     38 C3         84.6845   54.5595   34.8900 c5         1 CLA      0.031200
     39 C3A        80.8282   59.1020   35.9270 a1         1 CLA      0.166800
     40 C3B        79.3656   61.5825   41.2030 cb         1 CLA      0.035000
     41 C3C        73.9619   58.5572   41.4220 cb         1 CLA     -0.089900
     42 C3D        75.1779   56.5138   35.8104 cb         1 CLA     -0.035900
     43 C4         84.2796   53.2868   35.6548 a3         1 CLA     -0.053300
     44 C4A        79.8731   59.4450   36.9922 ac         1 CLA      0.001800
     45 C4B        78.2678   60.6777   40.9017 cn         1 CLA     -0.020900
     46 C4C        74.6022   58.4517   40.1016 cr         1 CLA     -0.044400
     47 C4D        76.1945   57.3412   36.2542 c6         1 CLA     -0.046000
     48 C5         86.1538   54.7561   34.7686 a2         1 CLA     -0.070400
     49 C6         86.9130   55.9191   35.5470 a2         1 CLA      0.043900
     50 C7         86.7541   55.8700   37.1306 a2         1 CLA     -0.150000
     51 C8         87.6092   56.9029   37.9485 a1         1 CLA      0.064200
     52 C9         89.1771   56.8760   37.7488 a3         1 CLA     -0.259300
     53 C10        87.2415   56.6850   39.4284 a2         1 CLA     -0.071900
     54 C11        87.4952   57.8495   40.2909 a2         1 CLA      0.014500
     55 C12        87.6509   57.5288   41.8569 a2         1 CLA     -0.112100
     56 C13        87.6565   58.7482   42.8646 a1         1 CLA      0.089200
     57 C14        88.6122   59.8805   42.4049 a3         1 CLA     -0.239100
     58 C15        87.9438   58.3588   44.3271 a2         1 CLA     -0.102200
     59 C16        87.0460   57.4929   45.0594 a2         1 CLA      0.023900
     60 C17        85.5765   57.9753   45.2522 a2         1 CLA     -0.105700
     61 C18        84.7468   57.1871   46.3236 a1         1 CLA      0.206800
     62 C19        85.0646   57.7285   47.7381 a3         1 CLA     -0.280100
     63 C20        83.2365   57.0683   46.0553 a3         1 CLA     -0.280100
     64 NC         75.8303   59.0091   40.1021 nx         1 CLA     -0.309200
     65 MG         77.2162   59.0642   38.4727 mg         1 CLA      0.895000
     66 HMD3       73.0049   54.9015   37.4518 dc         1 CLA      0.064300
     67 HMD2       72.0097   56.4530   37.1467 dc         1 CLA      0.064300
     68 HMD1       72.6026   55.6236   35.8215 dc         1 CLA      0.064300
     69 HMC3       74.6275   58.8810   44.2993 dc         1 CLA      0.052100
     70 HMC2       75.5490   60.3809   43.9358 dc         1 CLA      0.052100
     71 HMC1       73.7353   60.2965   43.6423 dc         1 CLA      0.052100
     72 HMB3       81.8133   63.0276   40.5435 dc         1 CLA      0.063600
     73 HMB2       82.2606   61.2597   39.8763 dc         1 CLA      0.063600
     74 HMB1       81.5535   62.5610   38.8222 dc         1 CLA      0.063600
     75 HMA3       81.6873   57.3428   36.8613 dc         1 CLA      0.058300
     76 HMA2       82.8046   58.1490   35.7604 dc         1 CLA      0.058300
     77 HMA1       82.4592   58.7612   37.3457 dc         1 CLA      0.058300
     78 HED3       78.9572   53.0408   33.9012 dc         1 CLA      0.079300
     79 HED2       80.3529   54.1598   34.3343 dc         1 CLA      0.079300
     80 HED1       79.5108   53.0902   35.4908 dc         1 CLA      0.079300
     81 HBC3       73.9243   55.9441   41.7917 dc         1 CLA      0.016300
     82 HBC2       72.2491   55.7520   42.3359 dc         1 CLA      0.016300
     83 HBC1       72.5439   55.8254   40.6605 dc         1 CLA      0.016300
     84 HBB2       80.1654   63.7899   43.8530 da         1 CLA      0.183000
     85 HBB1       81.2067   63.4420   42.3005 da         1 CLA      0.183000
     86 HBA2       80.7344   59.1433   31.6864 dc         1 CLA      0.029400
     87 HBA1       81.7352   59.2669   33.1260 dc         1 CLA      0.029400
     88 HAC2       72.5732   57.7652   42.9822 dc         1 CLA      0.029300
     89 HAC1       71.9240   58.1542   41.3577 dc         1 CLA      0.029300
     90 HAA2       78.8951   58.3306   33.0058 dc         1 CLA      0.028700
     91 HAA1       79.4025   59.8339   33.5534 dc         1 CLA      0.028700
     92 H203       82.7063   56.4805   46.7486 dc         1 CLA      0.065600
     93 H202       82.8734   58.0693   46.0559 dc         1 CLA      0.065600
     94 H201       83.1037   56.6190   45.0176 dc         1 CLA      0.065600
     95 H193       84.5652   58.6569   47.8382 dc         1 CLA      0.065600
     96 H192       84.7075   57.0799   48.5735 dc         1 CLA      0.065600
     97 H191       86.0598   57.9881   47.7288 dc         1 CLA      0.065600
     98 H172       85.4465   59.0503   45.3181 dc         1 CLA      0.027600
     99 H171       85.2077   57.8199   44.2639 dc         1 CLA      0.027600
    100 H162       86.9399   56.5910   44.4712 dc         1 CLA      0.002900
    101 H161       87.3712   57.2964   46.0818 dc         1 CLA      0.002900
    102 H152       88.9606   58.0532   44.4068 dc         1 CLA      0.029100
    103 H151       87.8642   59.3485   44.8119 dc         1 CLA      0.029100
    104 H143       88.3487   60.1650   41.3549 dc         1 CLA      0.063600
    105 H142       88.5699   60.7485   43.0625 dc         1 CLA      0.063600
    106 H141       89.5968   59.4019   42.3742 dc         1 CLA      0.063600
    107 H122       86.8057   56.8906   42.1102 dc         1 CLA      0.032500
    108 H121       88.5717   56.9546   42.0222 dc         1 CLA      0.032500
    109 H112       88.3259   58.4347   39.9806 dc         1 CLA      0.006600
    110 H111       86.6106   58.5304   40.3791 dc         1 CLA      0.006600
    111 H102       86.1411   56.6272   39.3423 dc         1 CLA      0.024100
    112 H101       87.6554   55.7928   39.8160 dc         1 CLA      0.024100
    113 HHD        73.0560   57.2944   39.2258 da         1 CLA      0.174300
    114 HHC        77.1048   60.7438   42.6282 da         1 CLA      0.136800
    115 HHB        81.2979   60.5920   37.9435 da         1 CLA      0.138300
    116 HBD        76.9069   57.3385   33.3807 dc         1 CLA      0.107700
    117 HAB        78.5756   62.3070   43.0924 da         1 CLA      0.155200
    118 H93        89.6342   55.8824   37.7044 dc         1 CLA      0.069500
    119 H92        89.4173   57.3761   36.7956 dc         1 CLA      0.069500
    120 H91        89.6877   57.3898   38.5542 dc         1 CLA      0.069500
    121 H8         87.2915   57.9314   37.5856 dc         1 CLA      0.029300
    122 H72        85.6377   56.0367   37.3135 dc         1 CLA      0.044400
    123 H71        87.0009   54.8171   37.3522 dc         1 CLA      0.044400
    124 H62        87.9978   55.7691   35.2642 dc         1 CLA      0.015600
    125 H61        86.4724   56.7977   35.0583 dc         1 CLA      0.015600
    126 H52        86.6546   53.7977   35.1036 dc         1 CLA      0.033200
    127 H51        86.3004   54.8273   33.7038 dc         1 CLA      0.033200
    128 H43        84.5143   53.3089   36.6990 dc         1 CLA      0.037000
    129 H42        83.2394   53.0811   35.5334 dc         1 CLA      0.037000
    130 H41        84.7705   52.3631   35.2937 dc         1 CLA      0.037000
    131 H3A        81.2078   60.0433   35.3279 dc         1 CLA      0.041100
    132 H2A        80.3402   57.1685   34.8819 dc         1 CLA      0.083100
    133 H2         83.6820   56.3270   35.0541 da         1 CLA      0.180900
    134 H18        85.2139   56.1676   46.2683 dc         1 CLA     -0.003900
    135 H13        86.7226   59.2233   42.7976 dc         1 CLA      0.019700
    136 H12        82.2922   54.9502   33.0203 dc         1 CLA      0.120400
    137 H11        83.7647   55.6117   32.1833 dc         1 CLA      0.120400
    138 C1         69.4188   61.5123   49.2925 Z1         2 LUT      0.509236
    139 C2         68.0848   61.3320   49.9968 Z2         2 LUT     -0.434695
    140 C3         67.2412   62.6223   50.3046 Z3         2 LUT      0.437453
    141 O3         67.4806   63.1523   51.6438 S1         2 LUT     -0.547129
    142 C4         67.6437   63.7881   49.4237 Z4         2 LUT     -0.468603
    143 C5         68.3765   63.4739   48.1237 Z5         2 LUT      0.279246
    144 C6         69.2692   62.4791   48.0499 Z6         2 LUT     -0.305473
    145 C7         69.7367   61.8816   46.7269 Z7         2 LUT      0.069402
    146 C8         70.5488   62.6235   45.8720 Z8         2 LUT     -0.191631
    147 C9         71.2370   62.3270   44.5990 Z9         2 LUT      0.196698
    148 C10        72.3766   63.0365   44.3181 Y1         2 LUT     -0.208611
    149 C11        73.1437   62.9798   43.1203 Y2         2 LUT      0.030784
    150 C12        74.3714   63.5869   42.8368 Y3         2 LUT     -0.220316
    151 C13        75.1066   63.4923   41.5810 Y4         2 LUT      0.215937
    152 C14        76.2746   64.1299   41.6037 Y5         2 LUT     -0.185793
    153 C15        77.2543   64.2271   40.4630 Y6         2 LUT     -0.057835
    154 C16        70.0004   60.0879   48.9801 Y7         2 LUT     -0.405615
    155 C17        70.4819   62.1795   50.1720 Y7         2 LUT     -0.405615
    156 C18        67.8219   64.3522   46.9694 Y9         2 LUT     -0.369639
    157 C19        70.6228   61.2440   43.7216 W1         2 LUT     -0.333362
    158 C20        74.5906   62.5780   40.4898 W2         2 LUT     -0.323439
    159 C21        88.7568   66.4059   34.7442 Z1         2 LUT      0.406104
    160 C22        89.4123   65.7761   33.4807 Z2         2 LUT     -0.404965
    161 C23        89.5235   66.6706   32.2055 Z3         2 LUT      0.391255
    162 O23        90.2947   65.9278   31.3074 S1         2 LUT     -0.528210
    163 C24        88.1373   67.2716   32.0476 W6         2 LUT     -0.258361
    164 C25        87.1799   67.3183   32.9522 Z5         2 LUT      0.133546
    165 C26        87.2893   66.7973   34.2989 W8         2 LUT     -0.147008
    166 C27        86.5267   67.4482   35.3835 Z7         2 LUT      0.023843
    167 C28        85.4467   66.8334   35.8890 Z8         2 LUT     -0.216987
    168 C29        84.7675   67.1022   37.1351 Z9         2 LUT      0.206524
    169 C30        83.6576   66.4059   37.4684 Y1         2 LUT     -0.215556
    170 C31        82.7887   66.4380   38.6112 Y2         2 LUT      0.025142
    171 C32        81.6524   65.6972   38.7543 Y3         2 LUT     -0.212209
    172 C33        80.7006   65.7696   39.8364 Y4         2 LUT      0.240937
    173 C34        79.5291   65.0481   39.6647 Y5         2 LUT     -0.218862
    174 C35        78.4631   64.8182   40.6753 Y6         2 LUT     -0.023547
    175 C36        89.6111   67.5802   35.4247 Y7         2 LUT     -0.393485
    176 C37        88.7643   65.2734   35.7675 Y7         2 LUT     -0.393485
    177 C38        85.7656   67.8182   32.5282 Y9         2 LUT     -0.387526
    178 C39        85.4221   68.0350   38.1064 W1         2 LUT     -0.322618
    179 C40        80.9472   66.7559   40.9484 W2         2 LUT     -0.358472
    180 H403       80.9099   67.7542   40.7025 R7         2 LUT      0.097720
    181 H402       80.1984   66.6432   41.7996 R7         2 LUT      0.097720
    182 H401       81.8719   66.4002   41.4844 R7         2 LUT      0.097720
    183 H393       84.9214   68.2080   39.0418 R4         2 LUT      0.082505
    184 H392       86.3696   67.6701   38.4320 R4         2 LUT      0.082505
    185 H391       85.6472   69.0597   37.7286 R4         2 LUT      0.082505
    186 H383       85.8915   68.5891   31.7624 R1         2 LUT      0.104030
    187 H382       85.1637   66.9850   32.0471 R1         2 LUT      0.104030
    188 H381       85.1292   68.2362   33.3183 R1         2 LUT      0.104030
    189 H373       89.8240   64.9757   36.1423 T4         2 LUT      0.089537
    190 H372       88.2440   65.5503   36.6993 T4         2 LUT      0.089537
    191 H371       88.4546   64.3269   35.3691 T4         2 LUT      0.089537
    192 H363       89.5667   68.5094   34.8365 T4         2 LUT      0.089537
    193 H362       89.1969   67.7852   36.4350 T4         2 LUT      0.089537
    194 H361       90.6648   67.3422   35.5757 T4         2 LUT      0.089537
    195 H222       90.4512   65.4750   33.8093 U2         2 LUT      0.127376
    196 H221       88.9950   64.7702   33.1277 U2         2 LUT      0.127376
    197 H203       74.1839   61.5836   40.9279 R7         2 LUT      0.087068
    198 H202       73.7561   63.0105   39.9295 R7         2 LUT      0.087068
    199 H201       75.3490   62.2867   39.7143 R7         2 LUT      0.087068
    200 H193       71.3307   60.4094   43.4577 R4         2 LUT      0.089716
    201 H192       69.7472   60.6994   44.1691 R4         2 LUT      0.089716
    202 H191       70.2993   61.6965   42.7398 R4         2 LUT      0.089716
    203 H183       66.7420   64.5884   46.9685 R1         2 LUT      0.094572
    204 H182       68.4220   65.2624   46.7912 R1         2 LUT      0.094572
    205 H181       67.9729   63.7809   46.0776 R1         2 LUT      0.094572
    206 H173       70.7106   61.5070   51.0115 T4         2 LUT      0.093752
    207 H172       71.4586   62.3663   49.7084 T4         2 LUT      0.093752
    208 H171       70.0690   63.1128   50.5990 T4         2 LUT      0.093752
    209 H163       70.8815   60.2079   48.3354 T4         2 LUT      0.093752
    210 H162       70.2798   59.4994   49.8656 T4         2 LUT      0.093752
    211 H161       69.2918   59.4238   48.3659 T4         2 LUT      0.093752
    212 HO3        67.0179   62.6452   52.3670 Q1         2 LUT      0.300121
    213 H8         70.7692   63.5874   46.2558 U7         2 LUT      0.080784
    214 H7         69.4411   60.7508   46.4830 U6         2 LUT      0.042190
    215 H42        66.6036   64.1799   49.2453 U5         2 LUT      0.145166
    216 H41        68.0380   64.6391   49.9718 U5         2 LUT      0.145166
    217 H35        78.5945   65.2396   41.5757 T3         2 LUT      0.077919
    218 H34        79.4138   64.4899   38.7536 T2         2 LUT      0.073626
    219 H32        81.3947   65.0711   37.9193 T1         2 LUT      0.092510
    220 H31        83.1614   67.1602   39.4230 U9         2 LUT      0.070048
    221 H30        83.2940   65.7046   36.7261 U8         2 LUT      0.085442
    222 H3         66.1897   62.4994   50.2059 U3         2 LUT     -0.031596
    223 H28        84.9790   66.0038   35.2706 U7         2 LUT      0.084728
    224 H27        86.9897   68.2487   35.9329 U6         2 LUT      0.087291
    225 H26        86.8963   65.7465   34.0804 Q6         2 LUT      0.075325
    226 H24        88.0259   67.8886   31.1491 Q5         2 LUT      0.094482
    227 H23        90.1952   67.4588   32.5602 U3         2 LUT     -0.024869
    228 H22        67.3866   60.7763   49.3551 U2         2 LUT      0.127376
    229 H21        68.1952   60.7710   50.9480 U2         2 LUT      0.127376
    230 H15        77.0230   63.8942   39.4338 T3         2 LUT      0.093200
    231 H14        76.6497   64.5933   42.5776 T2         2 LUT      0.068865
    232 H12        74.8434   64.2166   43.5435 T1         2 LUT      0.095507
    233 H11        72.6910   62.4043   42.4035 U9         2 LUT      0.068930
    234 H10        72.6713   63.7751   45.1069 U8         2 LUT      0.083911
    235 H1         89.7781   65.4058   30.7324 Q1         2 LUT      0.297311
@<TRIPOS>BOND
    1     6     1 1
    2     7     2 1
    3     8     3 1
    4     9     4 1
    5    11     4 1
    6    12     6 1
    7    13     9 1
    8    16     9 1
    9    25     5 1
   10    25    16 1
   11    26    10 1
   12    26    17 1
   13    27    18 1
   14    28    14 1
   15    28    19 1
   16    29    12 1
   17    30    13 1
   18    31    24 1
   19    32     1 1
   20    32    25 1
   21    33    21 1
   22    33    26 1
   23    34    22 1
   24    34    27 1
   25    35    23 1
   26    35    28 1
   27    36    12 1
   28    36    24 1
   29    37    13 1
   30    37    15 1
   31    38    31 1
   32    39    20 1
   33    39    32 1
   34    40     2 1
   35    40    33 1
   36    41     3 1
   37    41    34 1
   38    42     4 1
   39    42    35 1
   40    43    38 1
   41    44     5 1
   42    44    17 1
   43    44    39 1
   44    45    10 1
   45    45    18 1
   46    45    40 1
   47    46    19 1
   48    46    41 1
   49    47    14 1
   50    47    16 1
   51    47    42 1
   52    48    38 1
   53    49    48 1
   54    50    49 1
   55    51    50 1
   56    52    51 1
   57    53    51 1
   58    54    53 1
   59    55    54 1
   60    56    55 1
   61    57    56 1
   62    58    56 1
   63    59    58 1
   64    60    59 1
   65    61    60 1
   66    62    61 1
   67    63    61 1
   68    64    27 1
   69    64    46 1
   70    65     5 1
   71    65    10 1
   72    65    64 1
   73    65    14 1
   74    66    23 1
   75    67    23 1
   76    68    23 1
   77    69    22 1
   78    70    22 1
   79    71    22 1
   80    72    21 1
   81    73    21 1
   82    74    21 1
   83    75    20 1
   84    76    20 1
   85    77    20 1
   86    78    15 1
   87    79    15 1
   88    80    15 1
   89    81     8 1
   90    82     8 1
   91    83     8 1
   92    84     7 1
   93    85     7 1
   94    86     6 1
   95    87     6 1
   96    88     3 1
   97    89     3 1
   98    90     1 1
   99    91     1 1
  100    92    63 1
  101    93    63 1
  102    94    63 1
  103    95    62 1
  104    96    62 1
  105    97    62 1
  106    98    60 1
  107    99    60 1
  108   100    59 1
  109   101    59 1
  110   102    58 1
  111   103    58 1
  112   104    57 1
  113   105    57 1
  114   106    57 1
  115   107    55 1
  116   108    55 1
  117   109    54 1
  118   110    54 1
  119   111    53 1
  120   112    53 1
  121   113    19 1
  122   114    18 1
  123   115    17 1
  124   116     9 1
  125   117     2 1
  126   118    52 1
  127   119    52 1
  128   120    52 1
  129   121    51 1
  130   122    50 1
  131   123    50 1
  132   124    49 1
  133   125    49 1
  134   126    48 1
  135   127    48 1
  136   128    43 1
  137   129    43 1
  138   130    43 1
  139   131    39 1
  140   132    32 1
  141   133    31 1
  142   134    61 1
  143   135    56 1
  144   136    24 1
  145   137    24 1
  146   139   138 1
  147   140   139 1
  148   141   140 1
  149   142   140 1
  150   143   142 1
  151   144   138 1
  152   144   143 1
  153   145   144 1
  154   146   145 1
  155   147   146 1
  156   148   147 1
  157   149   148 1
  158   150   149 1
  159   151   150 1
  160   152   151 1
  161   153   152 1
  162   154   138 1
  163   155   138 1
  164   156   143 1
  165   157   147 1
  166   158   151 1
  167   160   159 1
  168   161   160 1
  169   162   161 1
  170   163   161 1
  171   164   163 1
  172   165   159 1
  173   165   164 1
  174   166   165 1
  175   167   166 1
  176   168   167 1
  177   169   168 1
  178   170   169 1
  179   171   170 1
  180   172   171 1
  181   173   172 1
  182   174   153 1
  183   174   173 1
  184   175   159 1
  185   176   159 1
  186   177   164 1
  187   178   168 1
  188   179   172 1
  189   180   179 1
  190   181   179 1
  191   182   179 1
  192   183   178 1
  193   184   178 1
  194   185   178 1
  195   186   177 1
  196   187   177 1
  197   188   177 1
  198   189   176 1
  199   190   176 1
  200   191   176 1
  201   192   175 1
  202   193   175 1
  203   194   175 1
  204   195   160 1
  205   196   160 1
  206   197   158 1
  207   198   158 1
  208   199   158 1
  209   200   157 1
  210   201   157 1
  211   202   157 1
  212   203   156 1
  213   204   156 1
  214   205   156 1
  215   206   155 1
  216   207   155 1
  217   208   155 1
  218   209   154 1
  219   210   154 1
  220   211   154 1
  221   212   141 1
  222   213   146 1
  223   214   145 1
  224   215   142 1
  225   216   142 1
  226   217   174 1
  227   218   173 1
  228   219   171 1
  229   220   170 1
  230   221   169 1
  231   222   140 1
  232   223   167 1
  233   224   166 1
  234   225   165 1
  235   226   163 1
  236   227   161 1
  237   228   139 1
  238   229   139 1
  239   230   153 1
  240   231   152 1
  241   232   150 1
  242   233   149 1
  243   234   148 1
  244   235   162 1
  245   65    153 1
  246   65    174 1
@<TRIPOS>SUBSTRUCTURE
      1 CLA               1 ****               0 ****  **** 
      2 LUT             138 ****               0 ****  **** 
