@<TRIPOS>MOLECULE
Cpptraj generated mol2 file.
  235   246     2     0     0
SMALL
USER_CHARGES


@<TRIPOS>ATOM
      1 CAA        76.7382   57.4138   33.9449 a2         1 CLA     -0.055900
      2 CAB        77.7619   60.6803   43.2195 c8         1 CLA     -0.148500
      3 CAC        70.2974   57.4895   42.8440 a2         1 CLA     -0.012600
      4 CAD        72.5619   55.0958   35.3337 ck         1 CLA      0.398800
      5 NA         76.0231   57.7602   37.4107 ns         1 CLA     -0.225500
      6 CBA        78.0285   57.3410   32.9920 a2         1 CLA     -0.135000
      7 CBB        79.0245   60.7758   43.6004 c0         1 CLA     -0.395200
      8 CBC        69.9449   55.9738   42.8040 a3         1 CLA     -0.037700
      9 CBD        74.0764   55.5643   34.9012 a1         1 CLA     -0.053900
     10 NB         76.1928   59.1367   40.1550 nm         1 CLA     -0.295700
     11 OBD        71.8919   54.3243   34.6374 o2         1 CLA     -0.494600
     12 CGA        78.4948   55.9365   32.5414 c4         1 CLA      0.827000
     13 CGD        75.0325   54.4159   34.5759 c4         1 CLA      0.655300
     14 ND         73.2286   56.9286   38.2349 nm         1 CLA     -0.291600
     15 CED        75.7854   52.2283   35.1181 a3         1 CLA      0.005400
     16 CHA        74.5220   56.3923   36.0948 cs         1 CLA     -0.123800
     17 CHB        77.8778   59.1147   38.3287 aa         1 CLA     -0.291900
     18 CHC        74.9887   59.3767   42.3653 aa         1 CLA     -0.090400
     19 CHD        71.4218   56.9187   39.9262 aa         1 CLA     -0.052000
     20 CMA        79.3074   56.8132   36.7092 a3         1 CLA     -0.230700
     21 CMB        79.5852   60.7290   40.2783 a3         1 CLA     -0.180800
     22 CMC        72.5333   59.1783   44.3096 a3         1 CLA     -0.134000
     23 CMD        69.8983   55.2156   37.6179 a3         1 CLA     -0.141100
     24 C1         79.3419   53.7992   33.3722 a2         1 CLA      0.023000
     25 C1A        75.7609   57.0002   36.2842 ac         1 CLA     -0.015100
     26 C1B        77.4386   59.4196   39.6928 cr         1 CLA      0.054700
     27 C1C        73.7663   58.7167   42.0617 cn         1 CLA     -0.005600
     28 C1D        71.9347   56.6100   38.6143 ap         1 CLA     -0.047300
     29 O1A        78.3638   55.4576   31.4396 o2         1 CLA     -0.610800
     30 O1D        75.7045   54.4684   33.5251 o2         1 CLA     -0.558200
     31 C2         79.9514   53.2584   34.6201 c8         1 CLA     -0.325100
     32 C2A        77.0316   56.8528   35.3716 a1         1 CLA      0.098600
     33 C2B        78.1552   60.2616   40.7013 cb         1 CLA      0.088500
     34 C2C        72.6119   58.5991   42.9221 cb         1 CLA      0.053700
     35 C2D        71.2954   55.8257   37.5516 cb         1 CLA      0.058900
     36 O2A        78.9510   55.1958   33.5790 o1         1 CLA     -0.437200
     37 O2D        75.1066   53.4277   35.5774 o1         1 CLA     -0.357600
     38 C3         80.7904   52.2555   34.8540 c5         1 CLA      0.031200
     39 C3A        78.0738   57.6952   36.2356 a1         1 CLA      0.166800
     40 C3B        77.3827   60.2339   41.8628 cb         1 CLA      0.035000
     41 C3C        71.6751   57.8657   42.2406 cb         1 CLA     -0.089900
     42 C3D        72.2813   55.7435   36.5798 cb         1 CLA     -0.035900
     43 C4         80.3687   50.8020   35.3005 a3         1 CLA     -0.053300
     44 C4A        77.2655   58.3283   37.3674 ac         1 CLA      0.001800
     45 C4B        76.0668   59.5988   41.4864 cn         1 CLA     -0.020900
     46 C4C        72.1603   57.5166   40.9970 cr         1 CLA     -0.044400
     47 C4D        73.4256   56.4228   36.9898 c6         1 CLA     -0.046000
     48 C5         82.2642   52.6240   34.6639 a2         1 CLA     -0.070400
     49 C6         82.9444   53.7885   35.3732 a2         1 CLA      0.043900
     50 C7         82.6508   53.9018   36.8814 a2         1 CLA     -0.150000
     51 C8         83.1301   55.2437   37.6381 a1         1 CLA      0.064200
     52 C9         84.6040   55.6176   37.1853 a3         1 CLA     -0.259300
     53 C10        83.2218   55.0739   39.1994 a2         1 CLA     -0.071900
     54 C11        81.8426   54.8855   39.8251 a2         1 CLA      0.014500
     55 C12        81.9239   54.9654   41.3948 a2         1 CLA     -0.112100
     56 C13        80.5522   55.3190   42.0900 a1         1 CLA      0.089200
     57 C14        79.7621   56.5252   41.4827 a3         1 CLA     -0.239100
     58 C15        80.7642   55.5042   43.5855 a2         1 CLA     -0.102200
     59 C16        81.2334   56.8602   44.1927 a2         1 CLA      0.023900
     60 C17        82.7843   57.0880   43.8240 a2         1 CLA     -0.105700
     61 C18        83.5190   58.1274   44.7360 a1         1 CLA      0.206800
     62 C19        82.8704   59.4724   44.8278 a3         1 CLA     -0.280100
     63 C20        83.8584   57.5935   46.1203 a3         1 CLA     -0.280100
     64 NC         73.3778   58.1672   40.8135 nx         1 CLA     -0.309200
     65 MG         74.5821   58.1039   39.0187 mg         1 CLA      0.895000
     66 HMD3       69.7128   54.3840   36.9091 dc         1 CLA      0.064300
     67 HMD2       69.6958   54.9944   38.6640 dc         1 CLA      0.064300
     68 HMD1       69.2111   56.0106   37.3167 dc         1 CLA      0.064300
     69 HMC3       71.8663   58.7009   45.0363 dc         1 CLA      0.052100
     70 HMC2       73.5263   59.0400   44.7728 dc         1 CLA      0.052100
     71 HMC1       72.3089   60.2602   44.1919 dc         1 CLA      0.052100
     72 HMB3       80.3569   59.9479   40.4220 dc         1 CLA      0.063600
     73 HMB2       79.5293   61.0334   39.2628 dc         1 CLA      0.063600
     74 HMB1       79.8384   61.6215   40.8458 dc         1 CLA      0.063600
     75 HMA3       78.9370   55.8310   36.9560 dc         1 CLA      0.058300
     76 HMA2       80.0560   56.6608   35.9217 dc         1 CLA      0.058300
     77 HMA1       79.8267   57.1370   37.6432 dc         1 CLA      0.058300
     78 HED3       76.8411   52.4055   35.1402 dc         1 CLA      0.079300
     79 HED2       75.6160   51.4682   35.8927 dc         1 CLA      0.079300
     80 HED1       75.4998   51.7674   34.1092 dc         1 CLA      0.079300
     81 HBC3       70.4327   55.4608   41.9995 dc         1 CLA      0.016300
     82 HBC2       70.3396   55.4416   43.7242 dc         1 CLA      0.016300
     83 HBC1       68.8806   55.8276   42.7674 dc         1 CLA      0.016300
     84 HBB2       79.2993   61.1088   44.5966 da         1 CLA      0.183000
     85 HBB1       79.9112   60.5663   42.9223 da         1 CLA      0.183000
     86 HBA2       77.8627   57.9496   32.0362 dc         1 CLA      0.029400
     87 HBA1       78.8920   57.7679   33.5326 dc         1 CLA      0.029400
     88 HAC2       70.1934   57.7204   43.8906 dc         1 CLA      0.029300
     89 HAC1       69.5755   58.0557   42.3126 dc         1 CLA      0.029300
     90 HAA2       75.9226   56.8573   33.4574 dc         1 CLA      0.028700
     91 HAA1       76.5292   58.4571   34.0673 dc         1 CLA      0.028700
     92 H203       84.6385   58.2382   46.5886 dc         1 CLA      0.065600
     93 H202       83.0028   57.5739   46.7110 dc         1 CLA      0.065600
     94 H201       84.2944   56.6071   45.9226 dc         1 CLA      0.065600
     95 H193       81.9059   59.3853   45.3361 dc         1 CLA      0.065600
     96 H192       83.5709   60.0650   45.3692 dc         1 CLA      0.065600
     97 H191       82.7315   59.9056   43.8320 dc         1 CLA      0.065600
     98 H172       83.4203   56.2493   43.8905 dc         1 CLA      0.027600
     99 H171       82.8034   57.5256   42.7853 dc         1 CLA      0.027600
    100 H162       80.5061   57.6123   43.7897 dc         1 CLA      0.002900
    101 H161       81.1100   56.6488   45.2264 dc         1 CLA      0.002900
    102 H152       79.7759   55.3348   44.0227 dc         1 CLA      0.029100
    103 H151       81.3583   54.6585   43.8721 dc         1 CLA      0.029100
    104 H143       79.4754   56.4207   40.4604 dc         1 CLA      0.063600
    105 H142       78.7569   56.6534   41.9662 dc         1 CLA      0.063600
    106 H141       80.3572   57.4303   41.5869 dc         1 CLA      0.063600
    107 H122       82.4500   54.1033   41.7610 dc         1 CLA      0.032500
    108 H121       82.6720   55.6643   41.6128 dc         1 CLA      0.032500
    109 H112       81.1302   55.6225   39.4381 dc         1 CLA      0.006600
    110 H111       81.5204   53.9020   39.3916 dc         1 CLA      0.006600
    111 H102       83.8561   54.2498   39.4205 dc         1 CLA      0.024100
    112 H101       83.4870   56.0212   39.6789 dc         1 CLA      0.024100
    113 HHD        70.3666   56.6230   40.0646 da         1 CLA      0.174300
    114 HHC        75.1788   59.7615   43.4106 da         1 CLA      0.136800
    115 HHB        78.8230   59.5354   38.0654 da         1 CLA      0.138300
    116 HBD        73.9184   56.1580   34.0499 dc         1 CLA      0.107700
    117 HAB        76.9292   60.7554   43.9524 da         1 CLA      0.155200
    118 H93        84.8021   55.9628   36.1992 dc         1 CLA      0.069500
    119 H92        85.1382   56.3750   37.8239 dc         1 CLA      0.069500
    120 H91        85.1825   54.7179   37.3196 dc         1 CLA      0.069500
    121 H8         82.4269   56.0349   37.4276 dc         1 CLA      0.029300
    122 H72        81.5902   53.6564   37.0660 dc         1 CLA      0.044400
    123 H71        83.1787   53.0642   37.2993 dc         1 CLA      0.044400
    124 H62        84.0366   53.7144   35.2197 dc         1 CLA      0.015600
    125 H61        82.5474   54.6328   34.8389 dc         1 CLA      0.015600
    126 H52        82.8623   51.7521   34.9264 dc         1 CLA      0.033200
    127 H51        82.5096   52.8529   33.6069 dc         1 CLA      0.033200
    128 H43        81.0757   50.0767   34.8282 dc         1 CLA      0.037000
    129 H42        80.3417   50.7845   36.4011 dc         1 CLA      0.037000
    130 H41        79.3019   50.5350   34.9480 dc         1 CLA      0.037000
    131 H3A        78.4434   58.5609   35.6915 dc         1 CLA      0.041100
    132 H2A        77.2797   55.7951   35.4106 dc         1 CLA      0.083100
    133 H2         79.8241   53.9033   35.5155 da         1 CLA      0.180900
    134 H18        84.4380   58.3552   44.1911 dc         1 CLA     -0.003900
    135 H13        79.9693   54.3866   41.9769 dc         1 CLA      0.019700
    136 H12        78.5468   53.0915   33.0488 dc         1 CLA      0.120400
    137 H11        80.0356   53.8113   32.5974 dc         1 CLA      0.120400
    138 C1         67.1947   60.6554   50.2324 Z1         2 LUT      0.509236
    139 C2         67.3905   62.0262   50.9776 Z2         2 LUT     -0.434695
    140 C3         66.1077   62.6832   51.3160 Z3         2 LUT      0.437453
    141 O3         66.4794   63.9610   51.8047 S1         2 LUT     -0.547129
    142 C4         65.2290   62.7111   50.0733 Z4         2 LUT     -0.468603
    143 C5         65.7404   62.1288   48.7977 Z5         2 LUT      0.279246
    144 C6         66.5728   61.0587   48.8274 Z6         2 LUT     -0.305473
    145 C7         67.3166   60.6078   47.5950 Z7         2 LUT      0.069402
    146 C8         68.0984   61.3338   46.7026 Z8         2 LUT     -0.191631
    147 C9         68.6574   60.9391   45.4321 Z9         2 LUT      0.196698
    148 C10        69.5838   61.7740   44.8035 Y1         2 LUT     -0.208611
    149 C11        70.1657   61.5851   43.5173 Y2         2 LUT      0.030784
    150 C12        71.1200   62.4346   43.0257 Y3         2 LUT     -0.220316
    151 C13        71.9274   62.1831   41.8722 Y4         2 LUT      0.215937
    152 C14        73.0964   63.0105   41.6747 Y5         2 LUT     -0.185793
    153 C15        74.1149   62.7875   40.7252 Y6         2 LUT     -0.057835
    154 C16        66.1870   59.9159   51.0568 Y7         2 LUT     -0.405615
    155 C17        68.5406   60.0164   50.2323 Y7         2 LUT     -0.405615
    156 C18        65.4175   63.0946   47.6490 Y9         2 LUT     -0.369639
    157 C19        68.0847   59.7034   44.7018 W1         2 LUT     -0.333362
    158 C20        71.4045   61.4804   40.6473 W2         2 LUT     -0.323439
    159 C21        85.8146   64.1104   34.7824 Z1         2 LUT      0.406104
    160 C22        86.6753   63.7257   33.5991 Z2         2 LUT     -0.404965
    161 C23        86.7063   64.7079   32.4797 Z3         2 LUT      0.391255
    162 O23        87.3894   64.1394   31.3716 S1         2 LUT     -0.528210
    163 C24        85.3291   65.2998   32.1350 W6         2 LUT     -0.258361
    164 C25        84.2937   65.2115   32.9094 Z5         2 LUT      0.133546
    165 C26        84.3743   64.3965   34.2096 W8         2 LUT     -0.147008
    166 C27        83.4116   65.0643   35.1811 Z7         2 LUT      0.023843
    167 C28        82.2818   64.4904   35.6896 Z8         2 LUT     -0.216987
    168 C29        81.5959   64.8983   36.9568 Z9         2 LUT      0.206524
    169 C30        80.5478   64.1022   37.3277 Y1         2 LUT     -0.215556
    170 C31        79.7753   64.2082   38.5273 Y2         2 LUT      0.025142
    171 C32        78.6109   63.5720   38.6963 Y3         2 LUT     -0.212209
    172 C33        77.7189   63.6909   39.8794 Y4         2 LUT      0.240937
    173 C34        76.4577   63.1464   39.7835 Y5         2 LUT     -0.218862
    174 C35        75.4096   63.2717   40.7886 Y6         2 LUT     -0.023547
    175 C36        86.3995   65.3691   35.3463 Y7         2 LUT     -0.393485
    176 C37        85.8589   62.9875   35.7957 Y7         2 LUT     -0.393485
    177 C38        83.0556   65.9320   32.4252 Y9         2 LUT     -0.387526
    178 C39        82.1387   66.1297   37.5864 W1         2 LUT     -0.322618
    179 C40        78.1433   64.7162   40.9658 W2         2 LUT     -0.358472
    180 H403       77.8323   65.7705   40.7836 R7         2 LUT      0.097720
    181 H402       77.6417   64.4132   41.8738 R7         2 LUT      0.097720
    182 H401       79.1794   64.7687   41.2832 R7         2 LUT      0.097720
    183 H393       82.1194   66.9477   36.8896 R4         2 LUT      0.082505
    184 H392       81.5143   66.3712   38.4253 R4         2 LUT      0.082505
    185 H391       83.1636   66.1153   37.9807 R4         2 LUT      0.082505
    186 H383       82.3963   65.1287   32.0635 R1         2 LUT      0.104030
    187 H382       82.5679   66.4949   33.1459 R1         2 LUT      0.104030
    188 H381       83.2678   66.5899   31.5355 R1         2 LUT      0.104030
    189 H373       85.6273   62.0335   35.3291 T4         2 LUT      0.089537
    190 H372       86.8006   62.7242   36.2118 T4         2 LUT      0.089537
    191 H371       85.1603   63.1224   36.5780 T4         2 LUT      0.089537
    192 H363       87.4269   65.2812   35.6185 T4         2 LUT      0.089537
    193 H362       86.2066   66.2721   34.7849 T4         2 LUT      0.089537
    194 H361       85.9837   65.4989   36.3338 T4         2 LUT      0.089537
    195 H222       87.7489   63.4838   33.8034 U2         2 LUT      0.127376
    196 H221       86.0917   62.8094   33.2768 U2         2 LUT      0.127376
    197 H203       72.0632   60.6120   40.3729 R7         2 LUT      0.087068
    198 H202       70.4148   61.1122   40.6189 R7         2 LUT      0.087068
    199 H201       71.3998   62.1700   39.8801 R7         2 LUT      0.087068
    200 H193       68.1896   58.8371   45.3376 R4         2 LUT      0.089716
    201 H192       67.0545   59.7922   44.3635 R4         2 LUT      0.089716
    202 H191       68.7003   59.4537   43.8350 R4         2 LUT      0.089716
    203 H183       65.8912   64.0245   47.8928 R1         2 LUT      0.094572
    204 H182       65.7935   62.7451   46.6940 R1         2 LUT      0.094572
    205 H181       64.3448   63.2834   47.5325 R1         2 LUT      0.094572
    206 H173       68.8253   59.8387   51.2277 T4         2 LUT      0.093752
    207 H172       68.5583   59.0275   49.7539 T4         2 LUT      0.093752
    208 H171       69.3282   60.6191   49.7444 T4         2 LUT      0.093752
    209 H163       66.3295   60.1598   52.0917 T4         2 LUT      0.093752
    210 H162       65.1364   60.1931   50.8465 T4         2 LUT      0.093752
    211 H161       66.3674   58.8262   50.8765 T4         2 LUT      0.093752
    212 HO3        65.7691   64.3383   52.3251 Q1         2 LUT      0.300121
    213 H8         68.1833   62.3485   46.9028 U7         2 LUT      0.080784
    214 H7         67.1460   59.6355   47.2315 U6         2 LUT      0.042190
    215 H42        64.4054   62.0754   50.2113 U5         2 LUT      0.145166
    216 H41        64.8213   63.7156   49.9509 U5         2 LUT      0.145166
    217 H35        75.5717   63.8972   41.7170 T3         2 LUT      0.077919
    218 H34        76.1853   62.4898   38.9514 T2         2 LUT      0.073626
    219 H32        78.2183   62.9420   37.9604 T1         2 LUT      0.092510
    220 H31        80.1714   64.8533   39.3021 U9         2 LUT      0.070048
    221 H30        80.1546   63.2512   36.6812 U8         2 LUT      0.085442
    222 H3         65.5503   62.1289   52.1583 U3         2 LUT     -0.031596
    223 H28        82.0308   63.4952   35.2689 U7         2 LUT      0.084728
    224 H27        83.7754   65.9384   35.6463 U6         2 LUT      0.087291
    225 H26        83.9601   63.4117   33.8721 Q6         2 LUT      0.075325
    226 H24        85.2412   65.7898   31.1161 Q5         2 LUT      0.094482
    227 H23        87.3853   65.5355   32.7375 U3         2 LUT     -0.024869
    228 H22        67.8474   61.7743   51.9590 U2         2 LUT      0.127376
    229 H21        68.0144   62.7511   50.4814 U2         2 LUT      0.127376
    230 H15        73.8351   62.2597   39.8510 T3         2 LUT      0.093200
    231 H14        73.3504   63.6776   42.5016 T2         2 LUT      0.068865
    232 H12        71.4076   63.2719   43.6136 T1         2 LUT      0.095507
    233 H11        70.0651   60.7749   42.8377 U9         2 LUT      0.068930
    234 H10        70.0049   62.6867   45.3303 U8         2 LUT      0.083911
    235 H1         86.8720   63.4841   30.9024 Q1         2 LUT      0.297311
@<TRIPOS>BOND
    1     6     1 1
    2     7     2 1
    3     8     3 1
    4     9     4 1
    5    11     4 1
    6    12     6 1
    7    13     9 1
    8    16     9 1
    9    25     5 1
   10    25    16 1
   11    26    10 1
   12    26    17 1
   13    27    18 1
   14    28    14 1
   15    28    19 1
   16    29    12 1
   17    30    13 1
   18    31    24 1
   19    32     1 1
   20    32    25 1
   21    33    21 1
   22    33    26 1
   23    34    22 1
   24    34    27 1
   25    35    23 1
   26    35    28 1
   27    36    12 1
   28    36    24 1
   29    37    13 1
   30    37    15 1
   31    38    31 1
   32    39    20 1
   33    39    32 1
   34    40     2 1
   35    40    33 1
   36    41     3 1
   37    41    34 1
   38    42     4 1
   39    42    35 1
   40    43    38 1
   41    44     5 1
   42    44    17 1
   43    44    39 1
   44    45    10 1
   45    45    18 1
   46    45    40 1
   47    46    19 1
   48    46    41 1
   49    47    14 1
   50    47    16 1
   51    47    42 1
   52    48    38 1
   53    49    48 1
   54    50    49 1
   55    51    50 1
   56    52    51 1
   57    53    51 1
   58    54    53 1
   59    55    54 1
   60    56    55 1
   61    57    56 1
   62    58    56 1
   63    59    58 1
   64    60    59 1
   65    61    60 1
   66    62    61 1
   67    63    61 1
   68    64    27 1
   69    64    46 1
   70    65     5 1
   71    65    10 1
   72    65    64 1
   73    65    14 1
   74    66    23 1
   75    67    23 1
   76    68    23 1
   77    69    22 1
   78    70    22 1
   79    71    22 1
   80    72    21 1
   81    73    21 1
   82    74    21 1
   83    75    20 1
   84    76    20 1
   85    77    20 1
   86    78    15 1
   87    79    15 1
   88    80    15 1
   89    81     8 1
   90    82     8 1
   91    83     8 1
   92    84     7 1
   93    85     7 1
   94    86     6 1
   95    87     6 1
   96    88     3 1
   97    89     3 1
   98    90     1 1
   99    91     1 1
  100    92    63 1
  101    93    63 1
  102    94    63 1
  103    95    62 1
  104    96    62 1
  105    97    62 1
  106    98    60 1
  107    99    60 1
  108   100    59 1
  109   101    59 1
  110   102    58 1
  111   103    58 1
  112   104    57 1
  113   105    57 1
  114   106    57 1
  115   107    55 1
  116   108    55 1
  117   109    54 1
  118   110    54 1
  119   111    53 1
  120   112    53 1
  121   113    19 1
  122   114    18 1
  123   115    17 1
  124   116     9 1
  125   117     2 1
  126   118    52 1
  127   119    52 1
  128   120    52 1
  129   121    51 1
  130   122    50 1
  131   123    50 1
  132   124    49 1
  133   125    49 1
  134   126    48 1
  135   127    48 1
  136   128    43 1
  137   129    43 1
  138   130    43 1
  139   131    39 1
  140   132    32 1
  141   133    31 1
  142   134    61 1
  143   135    56 1
  144   136    24 1
  145   137    24 1
  146   139   138 1
  147   140   139 1
  148   141   140 1
  149   142   140 1
  150   143   142 1
  151   144   138 1
  152   144   143 1
  153   145   144 1
  154   146   145 1
  155   147   146 1
  156   148   147 1
  157   149   148 1
  158   150   149 1
  159   151   150 1
  160   152   151 1
  161   153   152 1
  162   154   138 1
  163   155   138 1
  164   156   143 1
  165   157   147 1
  166   158   151 1
  167   160   159 1
  168   161   160 1
  169   162   161 1
  170   163   161 1
  171   164   163 1
  172   165   159 1
  173   165   164 1
  174   166   165 1
  175   167   166 1
  176   168   167 1
  177   169   168 1
  178   170   169 1
  179   171   170 1
  180   172   171 1
  181   173   172 1
  182   174   153 1
  183   174   173 1
  184   175   159 1
  185   176   159 1
  186   177   164 1
  187   178   168 1
  188   179   172 1
  189   180   179 1
  190   181   179 1
  191   182   179 1
  192   183   178 1
  193   184   178 1
  194   185   178 1
  195   186   177 1
  196   187   177 1
  197   188   177 1
  198   189   176 1
  199   190   176 1
  200   191   176 1
  201   192   175 1
  202   193   175 1
  203   194   175 1
  204   195   160 1
  205   196   160 1
  206   197   158 1
  207   198   158 1
  208   199   158 1
  209   200   157 1
  210   201   157 1
  211   202   157 1
  212   203   156 1
  213   204   156 1
  214   205   156 1
  215   206   155 1
  216   207   155 1
  217   208   155 1
  218   209   154 1
  219   210   154 1
  220   211   154 1
  221   212   141 1
  222   213   146 1
  223   214   145 1
  224   215   142 1
  225   216   142 1
  226   217   174 1
  227   218   173 1
  228   219   171 1
  229   220   170 1
  230   221   169 1
  231   222   140 1
  232   223   167 1
  233   224   166 1
  234   225   165 1
  235   226   163 1
  236   227   161 1
  237   228   139 1
  238   229   139 1
  239   230   153 1
  240   231   152 1
  241   232   150 1
  242   233   149 1
  243   234   148 1
  244   235   162 1
  245   65    153 1
  246   65    174 1
@<TRIPOS>SUBSTRUCTURE
      1 CLA               1 ****               0 ****  **** 
      2 LUT             138 ****               0 ****  **** 
