@<TRIPOS>MOLECULE
Cpptraj generated mol2 file.
  235   246     2     0     0
SMALL
USER_CHARGES


@<TRIPOS>ATOM
      1 CAA        79.5370   59.1147   33.9585 a2         1 CLA     -0.055900
      2 CAB        80.0572   62.2218   43.1319 c8         1 CLA     -0.148500
      3 CAC        72.9406   58.1386   42.7482 a2         1 CLA     -0.012600
      4 CAD        75.1071   56.9895   34.7698 ck         1 CLA      0.398800
      5 NA         78.5917   59.1218   37.3233 ns         1 CLA     -0.225500
      6 CBA        80.8337   59.0709   33.0891 a2         1 CLA     -0.135000
      7 CBB        79.6517   61.7079   44.3290 c0         1 CLA     -0.395200
      8 CBC        72.9372   56.6077   42.4855 a3         1 CLA     -0.037700
      9 CBD        76.5691   57.5011   34.4722 a1         1 CLA     -0.053900
     10 NB         78.6440   60.4901   40.0397 nm         1 CLA     -0.295700
     11 OBD        74.3457   56.4424   33.9683 o2         1 CLA     -0.494600
     12 CGA        81.3337   57.7730   32.5142 c4         1 CLA      0.827000
     13 CGD        77.4249   56.3223   33.9143 c4         1 CLA      0.655300
     14 ND         75.7327   58.4724   37.9688 nm         1 CLA     -0.291600
     15 CED        77.7468   54.0442   34.0181 a3         1 CLA      0.005400
     16 CHA        77.0572   58.0850   35.8190 cs         1 CLA     -0.123800
     17 CHB        80.5457   60.0632   38.4531 aa         1 CLA     -0.291900
     18 CHC        77.3710   60.8210   42.1218 aa         1 CLA     -0.090400
     19 CHD        74.0004   58.1426   39.6548 aa         1 CLA     -0.052000
     20 CMA        81.5711   57.5769   36.7898 a3         1 CLA     -0.230700
     21 CMB        82.0730   61.9803   40.6121 a3         1 CLA     -0.180800
     22 CMC        75.0481   60.1228   44.2577 a3         1 CLA     -0.134000
     23 CMD        72.5485   56.7965   37.0856 a3         1 CLA     -0.141100
     24 C1         82.1765   55.6467   33.2339 a2         1 CLA      0.023000
     25 C1A        78.3214   58.5579   36.0537 ac         1 CLA     -0.015100
     26 C1B        79.9836   60.6691   39.6457 cr         1 CLA      0.054700
     27 C1C        76.1988   59.9988   41.9036 cn         1 CLA     -0.005600
     28 C1D        74.5030   57.9420   38.3538 ap         1 CLA     -0.047300
     29 O1A        81.2608   57.4021   31.3908 o2         1 CLA     -0.610800
     30 O1D        78.1697   56.4117   32.9237 o2         1 CLA     -0.558200
     31 C2         83.1640   55.0593   34.2720 c8         1 CLA     -0.325100
     32 C2A        79.5712   58.2938   35.2468 a1         1 CLA      0.098600
     33 C2B        80.6493   61.4265   40.7038 cb         1 CLA      0.088500
     34 C2C        75.0932   59.7253   42.7781 cb         1 CLA      0.053700
     35 C2D        73.8888   57.2777   37.2039 cb         1 CLA      0.058900
     36 O2A        81.9658   57.0529   33.5304 o1         1 CLA     -0.437200
     37 O2D        77.1489   55.2093   34.6688 o1         1 CLA     -0.357600
     38 C3         84.3166   54.3648   33.9507 c5         1 CLA      0.031200
     39 C3A        80.6703   58.6818   36.3477 a1         1 CLA      0.166800
     40 C3B        79.7753   61.5745   41.7802 cb         1 CLA      0.035000
     41 C3C        74.2114   58.8529   42.1187 cb         1 CLA     -0.089900
     42 C3D        74.8541   57.3457   36.2101 cb         1 CLA     -0.035900
     43 C4         84.3983   52.8561   33.9480 a3         1 CLA     -0.053300
     44 C4A        79.8678   59.3607   37.4619 ac         1 CLA      0.001800
     45 C4B        78.5277   60.9661   41.3589 cn         1 CLA     -0.020900
     46 C4C        74.6652   58.8176   40.7402 cr         1 CLA     -0.044400
     47 C4D        75.9619   58.0822   36.7340 c6         1 CLA     -0.046000
     48 C5         85.6667   55.0600   34.0645 a2         1 CLA     -0.070400
     49 C6         85.7557   56.4777   34.8143 a2         1 CLA      0.043900
     50 C7         85.7810   56.2418   36.2926 a2         1 CLA     -0.150000
     51 C8         85.4934   57.4862   37.1824 a1         1 CLA      0.064200
     52 C9         86.4118   58.6722   36.7765 a3         1 CLA     -0.259300
     53 C10        85.5269   57.1410   38.6495 a2         1 CLA     -0.071900
     54 C11        85.0211   58.2662   39.6321 a2         1 CLA      0.014500
     55 C12        85.3980   57.8868   41.1192 a2         1 CLA     -0.112100
     56 C13        85.0673   59.1436   42.0599 a1         1 CLA      0.089200
     57 C14        85.9803   60.3374   41.8241 a3         1 CLA     -0.239100
     58 C15        84.8897   58.6071   43.5070 a2         1 CLA     -0.102200
     59 C16        83.5968   57.9702   43.9432 a2         1 CLA      0.023900
     60 C17        83.4884   57.9763   45.4538 a2         1 CLA     -0.105700
     61 C18        84.4517   57.0311   46.2437 a1         1 CLA      0.206800
     62 C19        84.2358   57.4335   47.7160 a3         1 CLA     -0.280100
     63 C20        84.1213   55.5760   45.9766 a3         1 CLA     -0.280100
     64 NC         75.8877   59.3927   40.6657 nx         1 CLA     -0.309200
     65 MG         77.1431   59.4956   38.9879 mg         1 CLA      0.895000
     66 HMD3       72.2628   56.2342   36.2072 dc         1 CLA      0.064300
     67 HMD2       72.2435   56.3133   38.0149 dc         1 CLA      0.064300
     68 HMD1       71.9572   57.6901   36.9762 dc         1 CLA      0.064300
     69 HMC3       75.9241   60.8238   44.5502 dc         1 CLA      0.052100
     70 HMC2       74.1160   60.6859   44.4805 dc         1 CLA      0.052100
     71 HMC1       75.0138   59.1680   44.7586 dc         1 CLA      0.052100
     72 HMB3       82.9607   61.3644   40.9166 dc         1 CLA      0.063600
     73 HMB2       82.2260   62.3111   39.6372 dc         1 CLA      0.063600
     74 HMB1       82.2205   62.8586   41.1964 dc         1 CLA      0.063600
     75 HMA3       82.0918   57.1079   35.9799 dc         1 CLA      0.058300
     76 HMA2       82.1696   58.0140   37.5102 dc         1 CLA      0.058300
     77 HMA1       80.9100   56.9039   37.3340 dc         1 CLA      0.058300
     78 HED3       77.3315   53.1049   34.4771 dc         1 CLA      0.079300
     79 HED2       77.6134   54.1202   32.9942 dc         1 CLA      0.079300
     80 HED1       78.7854   54.1178   34.2767 dc         1 CLA      0.079300
     81 HBC3       73.8648   56.3530   42.9647 dc         1 CLA      0.016300
     82 HBC2       72.1690   56.0546   43.1132 dc         1 CLA      0.016300
     83 HBC1       72.7633   56.3098   41.4204 dc         1 CLA      0.016300
     84 HBB2       79.8855   62.3633   45.1957 da         1 CLA      0.183000
     85 HBB1       78.9585   60.8508   44.4509 da         1 CLA      0.183000
     86 HBA2       80.6121   59.7034   32.2573 dc         1 CLA      0.029400
     87 HBA1       81.6196   59.5956   33.6821 dc         1 CLA      0.029400
     88 HAC2       72.9045   58.2907   43.7912 dc         1 CLA      0.029300
     89 HAC1       72.0601   58.5930   42.3596 dc         1 CLA      0.029300
     90 HAA2       78.8523   58.5857   33.3290 dc         1 CLA      0.028700
     91 HAA1       79.3128   60.1448   34.0651 dc         1 CLA      0.028700
     92 H203       84.8625   55.0169   46.5353 dc         1 CLA      0.065600
     93 H202       83.1333   55.3209   46.2579 dc         1 CLA      0.065600
     94 H201       84.3272   55.4373   44.8557 dc         1 CLA      0.065600
     95 H193       84.7219   56.6941   48.3543 dc         1 CLA      0.065600
     96 H192       84.6798   58.4181   47.9014 dc         1 CLA      0.065600
     97 H191       83.2405   57.5769   47.9673 dc         1 CLA      0.065600
     98 H172       83.7456   58.9856   45.7685 dc         1 CLA      0.027600
     99 H171       82.4256   57.8407   45.8181 dc         1 CLA      0.027600
    100 H162       82.7855   58.6093   43.5530 dc         1 CLA      0.002900
    101 H161       83.5859   56.9717   43.4882 dc         1 CLA      0.002900
    102 H152       85.8082   58.0364   43.7611 dc         1 CLA      0.029100
    103 H151       84.8913   59.5617   44.0254 dc         1 CLA      0.029100
    104 H143       85.9432   60.6751   40.8515 dc         1 CLA      0.063600
    105 H142       85.4658   61.0799   42.4574 dc         1 CLA      0.063600
    106 H141       87.0283   60.1730   42.0891 dc         1 CLA      0.063600
    107 H122       84.8137   56.9655   41.3693 dc         1 CLA      0.032500
    108 H121       86.4698   57.7150   41.1607 dc         1 CLA      0.032500
    109 H112       85.4085   59.2754   39.3047 dc         1 CLA      0.006600
    110 H111       83.9463   58.4539   39.6038 dc         1 CLA      0.006600
    111 H102       85.1279   56.1895   38.8880 dc         1 CLA      0.024100
    112 H101       86.6393   57.0805   38.8820 dc         1 CLA      0.024100
    113 HHD        72.9872   57.8716   39.7853 da         1 CLA      0.174300
    114 HHC        77.3232   61.2521   43.1141 da         1 CLA      0.136800
    115 HHB        81.6276   60.1868   38.2715 da         1 CLA      0.138300
    116 HBD        76.5338   58.2682   33.6905 dc         1 CLA      0.107700
    117 HAB        80.6561   63.0939   43.0770 da         1 CLA      0.155200
    118 H93        86.4462   58.8654   35.7239 dc         1 CLA      0.069500
    119 H92        86.1652   59.5465   37.3775 dc         1 CLA      0.069500
    120 H91        87.4484   58.3972   36.8409 dc         1 CLA      0.069500
    121 H8         84.5529   57.9028   37.0576 dc         1 CLA      0.029300
    122 H72        85.0373   55.4685   36.4182 dc         1 CLA      0.044400
    123 H71        86.7751   55.8100   36.5243 dc         1 CLA      0.044400
    124 H62        86.5551   57.0420   34.3864 dc         1 CLA      0.015600
    125 H61        84.9169   57.0816   34.5420 dc         1 CLA      0.015600
    126 H52        86.3917   54.3619   34.5375 dc         1 CLA      0.033200
    127 H51        86.0332   55.3224   33.0350 dc         1 CLA      0.033200
    128 H43        85.2010   52.3753   34.4529 dc         1 CLA      0.037000
    129 H42        83.5274   52.5123   34.5380 dc         1 CLA      0.037000
    130 H41        84.4934   52.4997   32.9375 dc         1 CLA      0.037000
    131 H3A        81.2356   59.4791   35.9018 dc         1 CLA      0.041100
    132 H2A        79.6251   57.2135   34.9792 dc         1 CLA      0.083100
    133 H2         82.8014   54.8421   35.3105 da         1 CLA      0.180900
    134 H18        85.5218   57.2159   46.2116 dc         1 CLA     -0.003900
    135 H13        84.0810   59.4768   41.8070 dc         1 CLA      0.019700
    136 H12        81.2207   55.1692   33.5089 dc         1 CLA      0.120400
    137 H11        82.4749   55.4394   32.1988 dc         1 CLA      0.120400
    138 C1         69.2043   61.2348   49.7717 Z1         2 LUT      0.509236
    139 C2         68.7999   62.1846   50.9425 Z2         2 LUT     -0.434695
    140 C3         67.3861   62.5221   50.9846 Z3         2 LUT      0.437453
    141 O3         67.1019   63.2784   52.1567 S1         2 LUT     -0.547129
    142 C4         67.0510   63.2611   49.6858 Z4         2 LUT     -0.468603
    143 C5         67.7539   62.9302   48.4277 Z5         2 LUT      0.279246
    144 C6         68.7634   62.0127   48.4775 Z6         2 LUT     -0.305473
    145 C7         69.4565   61.6809   47.2805 Z7         2 LUT      0.069402
    146 C8         70.2524   62.4769   46.5323 Z8         2 LUT     -0.191631
    147 C9         70.8652   62.2010   45.2826 Z9         2 LUT      0.196698
    148 C10        71.8025   63.0665   44.8042 Y1         2 LUT     -0.208611
    149 C11        72.5500   63.0163   43.6275 Y2         2 LUT      0.030784
    150 C12        73.6234   63.7739   43.2892 Y3         2 LUT     -0.220316
    151 C13        74.5718   63.5603   42.1271 Y4         2 LUT      0.215937
    152 C14        75.7300   64.2493   42.1805 Y5         2 LUT     -0.185793
    153 C15        76.7674   64.3393   41.1633 Y6         2 LUT     -0.057835
    154 C16        68.6970   59.7617   49.9839 Y7         2 LUT     -0.405615
    155 C17        70.7715   60.9365   49.7143 Y7         2 LUT     -0.405615
    156 C18        67.3828   63.9422   47.3927 Y9         2 LUT     -0.369639
    157 C19        70.4684   60.8839   44.6013 W1         2 LUT     -0.333362
    158 C20        74.0651   62.8942   40.8615 W2         2 LUT     -0.323439
    159 C21        88.3678   66.3740   34.8165 Z1         2 LUT      0.406104
    160 C22        89.0718   65.8552   33.5986 Z2         2 LUT     -0.404965
    161 C23        88.7829   66.6021   32.2992 Z3         2 LUT      0.391255
    162 O23        89.4350   65.9705   31.2107 S1         2 LUT     -0.528210
    163 C24        87.3214   67.1453   32.2906 W6         2 LUT     -0.258361
    164 C25        86.4382   67.1893   33.2523 Z5         2 LUT      0.133546
    165 C26        86.7573   66.5480   34.6175 W8         2 LUT     -0.147008
    166 C27        86.0484   67.0778   35.8409 Z7         2 LUT      0.023843
    167 C28        84.8178   66.7142   36.2874 Z8         2 LUT     -0.216987
    168 C29        84.2027   66.9869   37.6466 Z9         2 LUT      0.206524
    169 C30        83.0319   66.3982   37.8784 Y1         2 LUT     -0.215556
    170 C31        82.2701   66.4173   39.0877 Y2         2 LUT      0.025142
    171 C32        81.0482   65.7336   39.2363 Y3         2 LUT     -0.212209
    172 C33        80.1898   65.6815   40.4450 Y4         2 LUT      0.240937
    173 C34        78.9389   65.1137   40.3738 Y5         2 LUT     -0.218862
    174 C35        77.9593   65.0349   41.3813 Y6         2 LUT     -0.023547
    175 C36        88.9919   67.6986   35.2550 Y7         2 LUT     -0.393485
    176 C37        88.6306   65.2855   35.7986 Y7         2 LUT     -0.393485
    177 C38        85.2009   68.0222   33.1732 Y9         2 LUT     -0.387526
    178 C39        84.9129   67.9589   38.5969 W1         2 LUT     -0.322618
    179 C40        80.7973   66.0659   41.7144 W2         2 LUT     -0.358472
    180 H403       81.3700   65.2970   42.1793 R7         2 LUT      0.097720
    181 H402       81.4357   67.0431   41.6249 R7         2 LUT      0.097720
    182 H401       80.1440   66.4146   42.4306 R7         2 LUT      0.097720
    183 H393       84.2129   68.3627   39.3596 R4         2 LUT      0.082505
    184 H392       85.5509   67.3862   39.2368 R4         2 LUT      0.082505
    185 H391       85.5714   68.7162   38.0786 R4         2 LUT      0.082505
    186 H383       85.4574   69.0011   33.6057 R1         2 LUT      0.104030
    187 H382       84.8475   68.1645   32.1517 R1         2 LUT      0.104030
    188 H381       84.2691   67.6510   33.6283 R1         2 LUT      0.104030
    189 H373       89.6245   65.0544   35.9673 T4         2 LUT      0.089537
    190 H372       88.2656   65.5171   36.7926 T4         2 LUT      0.089537
    191 H371       88.1764   64.3133   35.5796 T4         2 LUT      0.089537
    192 H363       88.6923   68.1329   36.1539 T4         2 LUT      0.089537
    193 H362       90.0748   67.5889   35.3405 T4         2 LUT      0.089537
    194 H361       88.8760   68.4568   34.5483 T4         2 LUT      0.089537
    195 H222       90.1398   65.6135   33.7220 U2         2 LUT      0.127376
    196 H221       88.6133   64.8934   33.3476 U2         2 LUT      0.127376
    197 H203       74.6268   63.0503   39.9225 R7         2 LUT      0.087068
    198 H202       74.1046   61.8022   40.8633 R7         2 LUT      0.087068
    199 H201       72.9570   63.0422   40.6579 R7         2 LUT      0.087068
    200 H193       71.1510   60.4333   43.9289 R4         2 LUT      0.089716
    201 H192       70.4925   60.0612   45.2734 R4         2 LUT      0.089716
    202 H191       69.5007   60.9409   44.0150 R4         2 LUT      0.089716
    203 H183       67.3594   63.5279   46.4334 R1         2 LUT      0.094572
    204 H182       66.3861   64.4218   47.7399 R1         2 LUT      0.094572
    205 H181       68.2140   64.7087   47.3998 R1         2 LUT      0.094572
    206 H173       71.1543   60.3936   50.5947 T4         2 LUT      0.093752
    207 H172       70.9495   60.2250   48.9599 T4         2 LUT      0.093752
    208 H171       71.4076   61.7472   49.5331 T4         2 LUT      0.093752
    209 H163       67.6332   59.6061   49.8702 T4         2 LUT      0.093752
    210 H162       69.1113   59.0933   49.2199 T4         2 LUT      0.093752
    211 H161       69.0473   59.3472   50.8703 T4         2 LUT      0.093752
    212 HO3        66.9261   62.6697   52.9029 Q1         2 LUT      0.300121
    213 H8         70.3719   63.5109   46.7914 U7         2 LUT      0.080784
    214 H7         69.1079   60.6759   47.0526 U6         2 LUT      0.042190
    215 H42        65.9512   63.3373   49.5684 U5         2 LUT      0.145166
    216 H41        67.2669   64.3266   49.8750 U5         2 LUT      0.145166
    217 H35        78.0804   65.6127   42.2918 T3         2 LUT      0.077919
    218 H34        78.6109   64.7960   39.3509 T2         2 LUT      0.073626
    219 H32        80.5802   65.2711   38.3715 T1         2 LUT      0.092510
    220 H31        82.6254   66.8851   40.0256 U9         2 LUT      0.070048
    221 H30        82.7400   65.6277   37.1445 U8         2 LUT      0.085442
    222 H3         66.7282   61.6471   50.9775 U3         2 LUT     -0.031596
    223 H28        84.1842   66.1821   35.5708 U7         2 LUT      0.084728
    224 H27        86.7231   67.5418   36.5493 U6         2 LUT      0.087291
    225 H26        86.4011   65.5551   34.6596 Q6         2 LUT      0.075325
    226 H24        87.0345   67.7344   31.3884 Q5         2 LUT      0.094482
    227 H23        89.3108   67.5855   32.4031 U3         2 LUT     -0.024869
    228 H22        69.1787   61.8209   51.9525 U2         2 LUT      0.127376
    229 H21        69.4310   63.0487   50.8439 U2         2 LUT      0.127376
    230 H15        76.7107   63.8317   40.1927 T3         2 LUT      0.093200
    231 H14        75.8604   64.8181   43.0683 T2         2 LUT      0.068865
    232 H12        73.8517   64.4236   44.0870 T1         2 LUT      0.095507
    233 H11        72.2658   62.2751   42.9165 U9         2 LUT      0.068930
    234 H10        72.1123   63.8139   45.5166 U8         2 LUT      0.083911
    235 H1         89.0191   66.2703   30.4027 Q1         2 LUT      0.297311
@<TRIPOS>BOND
    1     6     1 1
    2     7     2 1
    3     8     3 1
    4     9     4 1
    5    11     4 1
    6    12     6 1
    7    13     9 1
    8    16     9 1
    9    25     5 1
   10    25    16 1
   11    26    10 1
   12    26    17 1
   13    27    18 1
   14    28    14 1
   15    28    19 1
   16    29    12 1
   17    30    13 1
   18    31    24 1
   19    32     1 1
   20    32    25 1
   21    33    21 1
   22    33    26 1
   23    34    22 1
   24    34    27 1
   25    35    23 1
   26    35    28 1
   27    36    12 1
   28    36    24 1
   29    37    13 1
   30    37    15 1
   31    38    31 1
   32    39    20 1
   33    39    32 1
   34    40     2 1
   35    40    33 1
   36    41     3 1
   37    41    34 1
   38    42     4 1
   39    42    35 1
   40    43    38 1
   41    44     5 1
   42    44    17 1
   43    44    39 1
   44    45    10 1
   45    45    18 1
   46    45    40 1
   47    46    19 1
   48    46    41 1
   49    47    14 1
   50    47    16 1
   51    47    42 1
   52    48    38 1
   53    49    48 1
   54    50    49 1
   55    51    50 1
   56    52    51 1
   57    53    51 1
   58    54    53 1
   59    55    54 1
   60    56    55 1
   61    57    56 1
   62    58    56 1
   63    59    58 1
   64    60    59 1
   65    61    60 1
   66    62    61 1
   67    63    61 1
   68    64    27 1
   69    64    46 1
   70    65     5 1
   71    65    10 1
   72    65    64 1
   73    65    14 1
   74    66    23 1
   75    67    23 1
   76    68    23 1
   77    69    22 1
   78    70    22 1
   79    71    22 1
   80    72    21 1
   81    73    21 1
   82    74    21 1
   83    75    20 1
   84    76    20 1
   85    77    20 1
   86    78    15 1
   87    79    15 1
   88    80    15 1
   89    81     8 1
   90    82     8 1
   91    83     8 1
   92    84     7 1
   93    85     7 1
   94    86     6 1
   95    87     6 1
   96    88     3 1
   97    89     3 1
   98    90     1 1
   99    91     1 1
  100    92    63 1
  101    93    63 1
  102    94    63 1
  103    95    62 1
  104    96    62 1
  105    97    62 1
  106    98    60 1
  107    99    60 1
  108   100    59 1
  109   101    59 1
  110   102    58 1
  111   103    58 1
  112   104    57 1
  113   105    57 1
  114   106    57 1
  115   107    55 1
  116   108    55 1
  117   109    54 1
  118   110    54 1
  119   111    53 1
  120   112    53 1
  121   113    19 1
  122   114    18 1
  123   115    17 1
  124   116     9 1
  125   117     2 1
  126   118    52 1
  127   119    52 1
  128   120    52 1
  129   121    51 1
  130   122    50 1
  131   123    50 1
  132   124    49 1
  133   125    49 1
  134   126    48 1
  135   127    48 1
  136   128    43 1
  137   129    43 1
  138   130    43 1
  139   131    39 1
  140   132    32 1
  141   133    31 1
  142   134    61 1
  143   135    56 1
  144   136    24 1
  145   137    24 1
  146   139   138 1
  147   140   139 1
  148   141   140 1
  149   142   140 1
  150   143   142 1
  151   144   138 1
  152   144   143 1
  153   145   144 1
  154   146   145 1
  155   147   146 1
  156   148   147 1
  157   149   148 1
  158   150   149 1
  159   151   150 1
  160   152   151 1
  161   153   152 1
  162   154   138 1
  163   155   138 1
  164   156   143 1
  165   157   147 1
  166   158   151 1
  167   160   159 1
  168   161   160 1
  169   162   161 1
  170   163   161 1
  171   164   163 1
  172   165   159 1
  173   165   164 1
  174   166   165 1
  175   167   166 1
  176   168   167 1
  177   169   168 1
  178   170   169 1
  179   171   170 1
  180   172   171 1
  181   173   172 1
  182   174   153 1
  183   174   173 1
  184   175   159 1
  185   176   159 1
  186   177   164 1
  187   178   168 1
  188   179   172 1
  189   180   179 1
  190   181   179 1
  191   182   179 1
  192   183   178 1
  193   184   178 1
  194   185   178 1
  195   186   177 1
  196   187   177 1
  197   188   177 1
  198   189   176 1
  199   190   176 1
  200   191   176 1
  201   192   175 1
  202   193   175 1
  203   194   175 1
  204   195   160 1
  205   196   160 1
  206   197   158 1
  207   198   158 1
  208   199   158 1
  209   200   157 1
  210   201   157 1
  211   202   157 1
  212   203   156 1
  213   204   156 1
  214   205   156 1
  215   206   155 1
  216   207   155 1
  217   208   155 1
  218   209   154 1
  219   210   154 1
  220   211   154 1
  221   212   141 1
  222   213   146 1
  223   214   145 1
  224   215   142 1
  225   216   142 1
  226   217   174 1
  227   218   173 1
  228   219   171 1
  229   220   170 1
  230   221   169 1
  231   222   140 1
  232   223   167 1
  233   224   166 1
  234   225   165 1
  235   226   163 1
  236   227   161 1
  237   228   139 1
  238   229   139 1
  239   230   153 1
  240   231   152 1
  241   232   150 1
  242   233   149 1
  243   234   148 1
  244   235   162 1
  245   65    153 1
  246   65    174 1
@<TRIPOS>SUBSTRUCTURE
      1 CLA               1 ****               0 ****  **** 
      2 LUT             138 ****               0 ****  **** 
