@<TRIPOS>MOLECULE
Cpptraj generated mol2 file.
  235   246     2     0     0
SMALL
USER_CHARGES


@<TRIPOS>ATOM
      1 CAA        79.3608   59.4483   33.2480 a2         1 CLA     -0.055900
      2 CAB        78.8787   63.2906   42.0669 c8         1 CLA     -0.148500
      3 CAC        72.3361   58.6694   41.5674 a2         1 CLA     -0.012600
      4 CAD        75.2821   56.5877   34.2332 ck         1 CLA      0.398800
      5 NA         78.3512   59.5668   36.5456 ns         1 CLA     -0.225500
      6 CBA        80.5866   59.3913   32.3367 a2         1 CLA     -0.135000
      7 CBB        79.9675   63.3029   42.8306 c0         1 CLA     -0.395200
      8 CBC        72.5478   57.2233   41.9693 a3         1 CLA     -0.037700
      9 CBD        76.6710   57.2538   33.8603 a1         1 CLA     -0.053900
     10 NB         77.9749   61.2816   39.0046 nm         1 CLA     -0.295700
     11 OBD        74.7783   55.7455   33.5441 o2         1 CLA     -0.494600
     12 CGA        81.2563   58.0393   32.0298 c4         1 CLA      0.827000
     13 CGD        77.7345   56.2320   33.4530 c4         1 CLA      0.655300
     14 ND         75.5478   58.6472   37.0592 nm         1 CLA     -0.291600
     15 CED        78.9033   54.1647   33.8806 a3         1 CLA      0.005400
     16 CHA        77.0166   58.1271   35.0874 cs         1 CLA     -0.123800
     17 CHB        79.9706   61.0639   37.6329 aa         1 CLA     -0.291900
     18 CHC        76.5391   61.5305   41.0280 aa         1 CLA     -0.090400
     19 CHD        73.6340   58.4776   38.5881 aa         1 CLA     -0.052000
     20 CMA        81.6996   58.9667   36.3270 a3         1 CLA     -0.230700
     21 CMB        81.1436   63.0486   39.6376 a3         1 CLA     -0.180800
     22 CMC        74.3885   60.6451   43.0761 a3         1 CLA     -0.134000
     23 CMD        72.6103   56.4182   36.3716 a3         1 CLA     -0.141100
     24 C1         82.4359   56.1003   32.9346 a2         1 CLA      0.023000
     25 C1A        78.2396   58.7968   35.4672 ac         1 CLA     -0.015100
     26 C1B        79.2904   61.5987   38.7323 cr         1 CLA      0.054700
     27 C1C        75.4696   60.7386   40.7019 cn         1 CLA     -0.005600
     28 C1D        74.2855   58.1503   37.3973 ap         1 CLA     -0.047300
     29 O1A        81.0469   57.3728   31.0348 o2         1 CLA     -0.610800
     30 O1D        78.3563   56.3206   32.4274 o2         1 CLA     -0.558200
     31 C2         83.0760   55.6813   34.2653 c8         1 CLA     -0.325100
     32 C2A        79.5569   58.8718   34.6707 a1         1 CLA      0.098600
     33 C2B        79.7439   62.4822   39.7113 cb         1 CLA      0.088500
     34 C2C        74.4176   60.3411   41.6236 cb         1 CLA      0.053700
     35 C2D        73.8729   57.1986   36.3793 cb         1 CLA      0.058900
     36 O2A        82.0715   57.5286   33.0305 o1         1 CLA     -0.437200
     37 O2D        77.8675   55.1529   34.2961 o1         1 CLA     -0.357600
     38 C3         83.8741   54.6529   34.4930 c5         1 CLA      0.031200
     39 C3A        80.5149   59.6710   35.5355 a1         1 CLA      0.166800
     40 C3B        78.8012   62.5323   40.7827 cb         1 CLA      0.035000
     41 C3C        73.6314   59.3388   40.9833 cb         1 CLA     -0.089900
     42 C3D        74.8797   57.2006   35.4754 cb         1 CLA     -0.035900
     43 C4         83.3844   53.2521   34.8411 a3         1 CLA     -0.053300
     44 C4A        79.5460   60.1859   36.5846 ac         1 CLA      0.001800
     45 C4B        77.6349   61.7885   40.1982 cn         1 CLA     -0.020900
     46 C4C        74.1937   59.2557   39.6240 cr         1 CLA     -0.044400
     47 C4D        75.8800   58.0834   35.9316 c6         1 CLA     -0.046000
     48 C5         85.4179   54.8472   34.4790 a2         1 CLA     -0.070400
     49 C6         86.0469   56.0653   35.2557 a2         1 CLA      0.043900
     50 C7         85.6581   56.0912   36.7664 a2         1 CLA     -0.150000
     51 C8         85.9194   57.4771   37.5030 a1         1 CLA      0.064200
     52 C9         87.4056   58.0020   37.4079 a3         1 CLA     -0.259300
     53 C10        85.4331   57.2333   38.9809 a2         1 CLA     -0.071900
     54 C11        85.3546   58.4503   39.9265 a2         1 CLA      0.014500
     55 C12        84.9401   58.0205   41.3704 a2         1 CLA     -0.112100
     56 C13        84.7800   59.2548   42.2821 a1         1 CLA      0.089200
     57 C14        86.1539   59.5839   43.0521 a3         1 CLA     -0.239100
     58 C15        83.5555   59.1331   43.2686 a2         1 CLA     -0.102200
     59 C16        82.1662   59.3579   42.6254 a2         1 CLA      0.023900
     60 C17        81.0656   59.3792   43.6335 a2         1 CLA     -0.105700
     61 C18        79.7058   59.7561   43.0144 a1         1 CLA      0.206800
     62 C19        79.2012   58.7034   41.9158 a3         1 CLA     -0.280100
     63 C20        78.6503   60.0941   44.1298 a3         1 CLA     -0.280100
     64 NC         75.3030   60.0775   39.5402 nx         1 CLA     -0.309200
     65 MG         76.8022   59.9794   37.9436 mg         1 CLA      0.895000
     66 HMD3       71.8074   57.0491   36.1246 dc         1 CLA      0.064300
     67 HMD2       72.7243   55.5045   35.7791 dc         1 CLA      0.064300
     68 HMD1       72.5586   56.0475   37.3807 dc         1 CLA      0.064300
     69 HMC3       75.3797   60.4306   43.3915 dc         1 CLA      0.052100
     70 HMC2       74.1961   61.7223   43.2656 dc         1 CLA      0.052100
     71 HMC1       73.6950   60.1008   43.6550 dc         1 CLA      0.052100
     72 HMB3       81.3206   63.7477   40.4704 dc         1 CLA      0.063600
     73 HMB2       81.8553   62.1791   39.8312 dc         1 CLA      0.063600
     74 HMB1       81.3458   63.5553   38.6817 dc         1 CLA      0.063600
     75 HMA3       81.1834   58.1888   36.8440 dc         1 CLA      0.058300
     76 HMA2       82.3831   58.6748   35.5716 dc         1 CLA      0.058300
     77 HMA1       82.0818   59.6025   37.1052 dc         1 CLA      0.058300
     78 HED3       78.7397   53.8854   32.8305 dc         1 CLA      0.079300
     79 HED2       79.8839   54.6063   34.0147 dc         1 CLA      0.079300
     80 HED1       78.8081   53.3418   34.5546 dc         1 CLA      0.079300
     81 HBC3       72.8856   56.5888   41.1415 dc         1 CLA      0.016300
     82 HBC2       73.2275   57.1991   42.8194 dc         1 CLA      0.016300
     83 HBC1       71.5813   56.7962   42.2592 dc         1 CLA      0.016300
     84 HBB2       80.0805   63.9814   43.7282 da         1 CLA      0.183000
     85 HBB1       80.8981   62.7656   42.6089 da         1 CLA      0.183000
     86 HBA2       80.3318   59.9305   31.4942 dc         1 CLA      0.029400
     87 HBA1       81.3592   60.0750   32.6451 dc         1 CLA      0.029400
     88 HAC2       72.0138   59.2238   42.4380 dc         1 CLA      0.029300
     89 HAC1       71.5126   58.7107   40.9119 dc         1 CLA      0.029300
     90 HAA2       78.5525   58.8669   32.8086 dc         1 CLA      0.028700
     91 HAA1       79.0298   60.5146   33.2428 dc         1 CLA      0.028700
     92 H203       78.9453   60.9286   44.6568 dc         1 CLA      0.065600
     93 H202       77.7750   60.4170   43.6520 dc         1 CLA      0.065600
     94 H201       78.4429   59.1892   44.6351 dc         1 CLA      0.065600
     95 H193       78.1992   58.9201   41.6272 dc         1 CLA      0.065600
     96 H192       79.7639   58.7473   41.0103 dc         1 CLA      0.065600
     97 H191       79.3128   57.6677   42.2372 dc         1 CLA      0.065600
     98 H172       81.0732   58.4487   44.1769 dc         1 CLA      0.027600
     99 H171       81.3393   60.2208   44.3393 dc         1 CLA      0.027600
    100 H162       82.1911   60.3201   42.1668 dc         1 CLA      0.002900
    101 H161       82.0309   58.5657   41.9287 dc         1 CLA      0.002900
    102 H152       83.5256   58.1896   43.8644 dc         1 CLA      0.029100
    103 H151       83.7058   59.9150   44.0101 dc         1 CLA      0.029100
    104 H143       85.9666   60.4084   43.7488 dc         1 CLA      0.063600
    105 H142       86.6046   58.8223   43.5944 dc         1 CLA      0.063600
    106 H141       86.8917   59.8450   42.2627 dc         1 CLA      0.063600
    107 H122       83.9595   57.5001   41.3993 dc         1 CLA      0.032500
    108 H121       85.7141   57.3646   41.7873 dc         1 CLA      0.032500
    109 H112       86.3397   58.9401   39.9677 dc         1 CLA      0.006600
    110 H111       84.5341   59.0742   39.4858 dc         1 CLA      0.006600
    111 H102       84.4260   56.8502   38.9503 dc         1 CLA      0.024100
    112 H101       86.1134   56.5097   39.3898 dc         1 CLA      0.024100
    113 HHD        72.6718   57.9294   38.7524 da         1 CLA      0.174300
    114 HHC        76.4968   62.0083   42.0005 da         1 CLA      0.136800
    115 HHB        80.9732   61.5286   37.5500 da         1 CLA      0.138300
    116 HBD        76.3081   57.7711   33.0332 dc         1 CLA      0.107700
    117 HAB        78.0019   63.8366   42.4082 da         1 CLA      0.155200
    118 H93        88.0960   57.3645   37.8809 dc         1 CLA      0.069500
    119 H92        87.7010   58.1373   36.3535 dc         1 CLA      0.069500
    120 H91        87.3371   58.9893   37.8923 dc         1 CLA      0.069500
    121 H8         85.3117   58.2071   36.9936 dc         1 CLA      0.029300
    122 H72        84.5965   56.0061   36.8793 dc         1 CLA      0.044400
    123 H71        86.0894   55.2384   37.3210 dc         1 CLA      0.044400
    124 H62        87.1041   56.0594   35.2159 dc         1 CLA      0.015600
    125 H61        85.7178   56.9334   34.6923 dc         1 CLA      0.015600
    126 H52        85.7603   53.9491   34.9204 dc         1 CLA      0.033200
    127 H51        85.7192   54.9198   33.4332 dc         1 CLA      0.033200
    128 H43        83.4651   52.5194   34.0405 dc         1 CLA      0.037000
    129 H42        83.8802   52.8732   35.7559 dc         1 CLA      0.037000
    130 H41        82.3232   53.1909   35.0659 dc         1 CLA      0.037000
    131 H3A        80.9044   60.5017   34.9735 dc         1 CLA      0.041100
    132 H2A        79.8984   57.8564   34.6095 dc         1 CLA      0.083100
    133 H2         82.7899   56.3485   35.0707 da         1 CLA      0.180900
    134 H18        79.8796   60.6606   42.3634 dc         1 CLA     -0.003900
    135 H13        84.5366   60.1343   41.6693 dc         1 CLA      0.019700
    136 H12        81.5667   55.4446   32.7519 dc         1 CLA      0.120400
    137 H11        83.1230   55.9349   32.1096 dc         1 CLA      0.120400
    138 C1         69.4690   62.8477   49.8792 Z1         2 LUT      0.509236
    139 C2         68.2017   62.1723   50.4160 Z2         2 LUT     -0.434695
    140 C3         66.9643   63.0012   50.5360 Z3         2 LUT      0.437453
    141 O3         66.5568   63.4237   51.8268 S1         2 LUT     -0.547129
    142 C4         67.0350   64.2242   49.6690 Z4         2 LUT     -0.468603
    143 C5         67.9471   64.1474   48.4358 Z5         2 LUT      0.279246
    144 C6         69.0943   63.5332   48.5443 Z6         2 LUT     -0.305473
    145 C7         69.9010   63.0090   47.3626 Z7         2 LUT      0.069402
    146 C8         70.6141   63.8727   46.5831 Z8         2 LUT     -0.191631
    147 C9         71.2011   63.5559   45.2853 Z9         2 LUT      0.196698
    148 C10        72.0848   64.3431   44.7108 Y1         2 LUT     -0.208611
    149 C11        72.6650   64.0757   43.4661 Y2         2 LUT      0.030784
    150 C12        73.6576   64.9081   43.0092 Y3         2 LUT     -0.220316
    151 C13        74.3694   64.7017   41.7923 Y4         2 LUT      0.215937
    152 C14        75.6670   65.3148   41.7073 Y5         2 LUT     -0.185793
    153 C15        76.6351   65.3922   40.6365 Y6         2 LUT     -0.057835
    154 C16        70.6866   61.8022   49.8008 Y7         2 LUT     -0.405615
    155 C17        70.0662   63.8414   50.9292 Y7         2 LUT     -0.405615
    156 C18        67.4634   64.9349   47.2104 Y9         2 LUT     -0.369639
    157 C19        70.7564   62.2457   44.6454 W1         2 LUT     -0.333362
    158 C20        73.7546   63.9321   40.6154 W2         2 LUT     -0.323439
    159 C21        88.1411   65.8525   34.2750 Z1         2 LUT      0.406104
    160 C22        88.8687   65.2528   33.0526 Z2         2 LUT     -0.404965
    161 C23        89.1004   66.2772   31.9605 Z3         2 LUT      0.391255
    162 O23        89.5830   65.6232   30.8618 S1         2 LUT     -0.528210
    163 C24        87.9364   67.2106   31.7399 W6         2 LUT     -0.258361
    164 C25        86.8719   67.3005   32.5674 Z5         2 LUT      0.133546
    165 C26        86.7269   66.4684   33.8291 W8         2 LUT     -0.147008
    166 C27        86.0144   67.1577   34.9820 Z7         2 LUT      0.023843
    167 C28        84.8459   66.8642   35.5640 Z8         2 LUT     -0.216987
    168 C29        84.2687   67.2975   36.8649 Z9         2 LUT      0.206524
    169 C30        82.9573   66.9539   37.2469 Y1         2 LUT     -0.215556
    170 C31        82.2903   66.9936   38.5534 Y2         2 LUT      0.025142
    171 C32        81.0718   66.4925   38.8063 Y3         2 LUT     -0.212209
    172 C33        80.2876   66.4978   39.9814 Y4         2 LUT      0.240937
    173 C34        79.0201   65.9376   39.9104 Y5         2 LUT     -0.218862
    174 C35        77.9249   65.8667   40.9032 Y6         2 LUT     -0.023547
    175 C36        89.1325   66.9725   34.7498 Y7         2 LUT     -0.393485
    176 C37        88.1291   64.8410   35.4682 Y7         2 LUT     -0.393485
    177 C38        85.6855   68.3033   32.1895 Y9         2 LUT     -0.387526
    178 C39        85.2039   68.0247   37.7984 W1         2 LUT     -0.322618
    179 C40        80.7669   67.3434   41.1478 W2         2 LUT     -0.358472
    180 H403       81.8418   67.0828   41.2915 R7         2 LUT      0.097720
    181 H402       80.8268   68.5036   40.9916 R7         2 LUT      0.097720
    182 H401       80.2481   67.2258   42.1213 R7         2 LUT      0.097720
    183 H393       86.2457   67.7314   37.6703 R4         2 LUT      0.082505
    184 H392       85.1790   69.1102   37.6130 R4         2 LUT      0.082505
    185 H391       84.9357   68.0158   38.8754 R4         2 LUT      0.082505
    186 H383       85.8925   68.8213   31.2187 R1         2 LUT      0.104030
    187 H382       84.6302   67.9244   32.1524 R1         2 LUT      0.104030
    188 H381       85.5741   69.0494   32.9560 R1         2 LUT      0.104030
    189 H373       87.4038   64.0439   35.1978 T4         2 LUT      0.089537
    190 H372       89.1065   64.3063   35.6450 T4         2 LUT      0.089537
    191 H371       87.7824   65.3526   36.3275 T4         2 LUT      0.089537
    192 H363       89.0371   67.9146   34.2407 T4         2 LUT      0.089537
    193 H362       88.8088   67.2617   35.7921 T4         2 LUT      0.089537
    194 H361       90.1975   66.6073   34.8803 T4         2 LUT      0.089537
    195 H222       89.7908   64.7209   33.2979 U2         2 LUT      0.127376
    196 H221       88.1941   64.4497   32.6219 U2         2 LUT      0.127376
    197 H203       74.5392   63.2738   40.1315 R7         2 LUT      0.087068
    198 H202       72.8725   63.4081   40.8159 R7         2 LUT      0.087068
    199 H201       73.5604   64.5705   39.7372 R7         2 LUT      0.087068
    200 H193       69.8275   61.9119   45.0096 R4         2 LUT      0.089716
    201 H192       70.6237   62.3725   43.5946 R4         2 LUT      0.089716
    202 H191       71.3650   61.3890   44.9555 R4         2 LUT      0.089716
    203 H183       66.4076   65.1202   47.1492 R1         2 LUT      0.094572
    204 H182       67.8878   65.9537   47.4455 R1         2 LUT      0.094572
    205 H181       67.8649   64.6288   46.2865 R1         2 LUT      0.094572
    206 H173       69.5596   64.7819   51.0133 T4         2 LUT      0.093752
    207 H172       69.8796   63.3593   51.9428 T4         2 LUT      0.093752
    208 H171       71.1452   63.9895   50.6029 T4         2 LUT      0.093752
    209 H163       70.3978   60.8903   49.2289 T4         2 LUT      0.093752
    210 H162       71.4972   62.1378   49.2295 T4         2 LUT      0.093752
    211 H161       70.9856   61.5585   50.7834 T4         2 LUT      0.093752
    212 HO3        67.1385   63.8224   52.4675 Q1         2 LUT      0.300121
    213 H8         70.6206   64.9289   46.8891 U7         2 LUT      0.080784
    214 H7         69.6371   62.0225   47.1493 U6         2 LUT      0.042190
    215 H42        66.0028   64.5485   49.3069 U5         2 LUT      0.145166
    216 H41        67.4703   64.9493   50.2787 U5         2 LUT      0.145166
    217 H35        78.1466   66.2955   41.8846 T3         2 LUT      0.077919
    218 H34        78.8276   65.5781   38.8847 T2         2 LUT      0.073626
    219 H32        80.7955   66.0155   37.9429 T1         2 LUT      0.092510
    220 H31        82.8856   67.4431   39.3923 U9         2 LUT      0.070048
    221 H30        82.3042   66.5338   36.4691 U8         2 LUT      0.085442
    222 H3         66.1639   62.4297   50.0686 U3         2 LUT     -0.031596
    223 H28        84.2218   66.1613   34.9951 U7         2 LUT      0.084728
    224 H27        86.7553   67.7668   35.5418 U6         2 LUT      0.087291
    225 H26        86.1137   65.6263   33.5967 Q6         2 LUT      0.075325
    226 H24        87.9906   67.9205   30.9550 Q5         2 LUT      0.094482
    227 H23        89.9009   67.0636   32.2357 U3         2 LUT     -0.024869
    228 H22        67.9949   61.4350   49.5956 U2         2 LUT      0.127376
    229 H21        68.4006   61.5568   51.2421 U2         2 LUT      0.127376
    230 H15        76.3736   64.8554   39.6811 T3         2 LUT      0.093200
    231 H14        75.9667   65.9172   42.5266 T2         2 LUT      0.068865
    232 H12        73.9670   65.7029   43.7593 T1         2 LUT      0.095507
    233 H11        72.3649   63.2650   42.8393 U9         2 LUT      0.068930
    234 H10        72.3721   65.2532   45.2567 U8         2 LUT      0.083911
    235 H1         89.3168   65.9519   29.9640 Q1         2 LUT      0.297311
@<TRIPOS>BOND
    1     6     1 1
    2     7     2 1
    3     8     3 1
    4     9     4 1
    5    11     4 1
    6    12     6 1
    7    13     9 1
    8    16     9 1
    9    25     5 1
   10    25    16 1
   11    26    10 1
   12    26    17 1
   13    27    18 1
   14    28    14 1
   15    28    19 1
   16    29    12 1
   17    30    13 1
   18    31    24 1
   19    32     1 1
   20    32    25 1
   21    33    21 1
   22    33    26 1
   23    34    22 1
   24    34    27 1
   25    35    23 1
   26    35    28 1
   27    36    12 1
   28    36    24 1
   29    37    13 1
   30    37    15 1
   31    38    31 1
   32    39    20 1
   33    39    32 1
   34    40     2 1
   35    40    33 1
   36    41     3 1
   37    41    34 1
   38    42     4 1
   39    42    35 1
   40    43    38 1
   41    44     5 1
   42    44    17 1
   43    44    39 1
   44    45    10 1
   45    45    18 1
   46    45    40 1
   47    46    19 1
   48    46    41 1
   49    47    14 1
   50    47    16 1
   51    47    42 1
   52    48    38 1
   53    49    48 1
   54    50    49 1
   55    51    50 1
   56    52    51 1
   57    53    51 1
   58    54    53 1
   59    55    54 1
   60    56    55 1
   61    57    56 1
   62    58    56 1
   63    59    58 1
   64    60    59 1
   65    61    60 1
   66    62    61 1
   67    63    61 1
   68    64    27 1
   69    64    46 1
   70    65     5 1
   71    65    10 1
   72    65    64 1
   73    65    14 1
   74    66    23 1
   75    67    23 1
   76    68    23 1
   77    69    22 1
   78    70    22 1
   79    71    22 1
   80    72    21 1
   81    73    21 1
   82    74    21 1
   83    75    20 1
   84    76    20 1
   85    77    20 1
   86    78    15 1
   87    79    15 1
   88    80    15 1
   89    81     8 1
   90    82     8 1
   91    83     8 1
   92    84     7 1
   93    85     7 1
   94    86     6 1
   95    87     6 1
   96    88     3 1
   97    89     3 1
   98    90     1 1
   99    91     1 1
  100    92    63 1
  101    93    63 1
  102    94    63 1
  103    95    62 1
  104    96    62 1
  105    97    62 1
  106    98    60 1
  107    99    60 1
  108   100    59 1
  109   101    59 1
  110   102    58 1
  111   103    58 1
  112   104    57 1
  113   105    57 1
  114   106    57 1
  115   107    55 1
  116   108    55 1
  117   109    54 1
  118   110    54 1
  119   111    53 1
  120   112    53 1
  121   113    19 1
  122   114    18 1
  123   115    17 1
  124   116     9 1
  125   117     2 1
  126   118    52 1
  127   119    52 1
  128   120    52 1
  129   121    51 1
  130   122    50 1
  131   123    50 1
  132   124    49 1
  133   125    49 1
  134   126    48 1
  135   127    48 1
  136   128    43 1
  137   129    43 1
  138   130    43 1
  139   131    39 1
  140   132    32 1
  141   133    31 1
  142   134    61 1
  143   135    56 1
  144   136    24 1
  145   137    24 1
  146   139   138 1
  147   140   139 1
  148   141   140 1
  149   142   140 1
  150   143   142 1
  151   144   138 1
  152   144   143 1
  153   145   144 1
  154   146   145 1
  155   147   146 1
  156   148   147 1
  157   149   148 1
  158   150   149 1
  159   151   150 1
  160   152   151 1
  161   153   152 1
  162   154   138 1
  163   155   138 1
  164   156   143 1
  165   157   147 1
  166   158   151 1
  167   160   159 1
  168   161   160 1
  169   162   161 1
  170   163   161 1
  171   164   163 1
  172   165   159 1
  173   165   164 1
  174   166   165 1
  175   167   166 1
  176   168   167 1
  177   169   168 1
  178   170   169 1
  179   171   170 1
  180   172   171 1
  181   173   172 1
  182   174   153 1
  183   174   173 1
  184   175   159 1
  185   176   159 1
  186   177   164 1
  187   178   168 1
  188   179   172 1
  189   180   179 1
  190   181   179 1
  191   182   179 1
  192   183   178 1
  193   184   178 1
  194   185   178 1
  195   186   177 1
  196   187   177 1
  197   188   177 1
  198   189   176 1
  199   190   176 1
  200   191   176 1
  201   192   175 1
  202   193   175 1
  203   194   175 1
  204   195   160 1
  205   196   160 1
  206   197   158 1
  207   198   158 1
  208   199   158 1
  209   200   157 1
  210   201   157 1
  211   202   157 1
  212   203   156 1
  213   204   156 1
  214   205   156 1
  215   206   155 1
  216   207   155 1
  217   208   155 1
  218   209   154 1
  219   210   154 1
  220   211   154 1
  221   212   141 1
  222   213   146 1
  223   214   145 1
  224   215   142 1
  225   216   142 1
  226   217   174 1
  227   218   173 1
  228   219   171 1
  229   220   170 1
  230   221   169 1
  231   222   140 1
  232   223   167 1
  233   224   166 1
  234   225   165 1
  235   226   163 1
  236   227   161 1
  237   228   139 1
  238   229   139 1
  239   230   153 1
  240   231   152 1
  241   232   150 1
  242   233   149 1
  243   234   148 1
  244   235   162 1
  245   65    153 1
  246   65    174 1
@<TRIPOS>SUBSTRUCTURE
      1 CLA               1 ****               0 ****  **** 
      2 LUT             138 ****               0 ****  **** 
