@<TRIPOS>MOLECULE
Cpptraj generated mol2 file.
  235   246     2     0     0
SMALL
USER_CHARGES


@<TRIPOS>ATOM
      1 CAA        76.9023   57.4752   33.2964 a2         1 CLA     -0.055900
      2 CAB        77.4432   61.3079   42.4651 c8         1 CLA     -0.148500
      3 CAC        70.5892   56.8671   41.9139 a2         1 CLA     -0.012600
      4 CAD        72.8734   54.9470   34.7161 ck         1 CLA      0.398800
      5 NA         76.1901   57.9613   36.7473 ns         1 CLA     -0.225500
      6 CBA        78.0973   57.4395   32.3509 a2         1 CLA     -0.135000
      7 CBB        76.5921   62.0880   43.2484 c0         1 CLA     -0.395200
      8 CBC        70.8190   55.3216   41.8632 a3         1 CLA     -0.037700
      9 CBD        74.3896   55.4045   34.4120 a1         1 CLA     -0.053900
     10 NB         76.1241   59.4518   39.4201 nm         1 CLA     -0.295700
     11 OBD        72.2550   54.0678   34.1068 o2         1 CLA     -0.494600
     12 CGA        78.6662   56.0960   32.0224 c4         1 CLA      0.827000
     13 CGD        75.2375   54.2491   34.2692 c4         1 CLA      0.655300
     14 ND         73.3769   57.0583   37.4387 nm         1 CLA     -0.291600
     15 CED        75.6919   51.9933   35.0846 a3         1 CLA      0.005400
     16 CHA        74.7543   56.4364   35.5120 cs         1 CLA     -0.123800
     17 CHB        78.0645   59.1253   37.8424 aa         1 CLA     -0.291900
     18 CHC        74.8312   59.7828   41.5108 aa         1 CLA     -0.090400
     19 CHD        71.6065   56.9508   39.0672 aa         1 CLA     -0.052000
     20 CMA        79.6417   57.1693   35.7898 a3         1 CLA     -0.230700
     21 CMB        79.6033   60.9617   40.2126 a3         1 CLA     -0.180800
     22 CMC        72.4774   58.9108   43.5730 a3         1 CLA     -0.134000
     23 CMD        70.3919   54.9983   37.0522 a3         1 CLA     -0.141100
     24 C1         79.8091   54.3076   33.1451 a2         1 CLA      0.023000
     25 C1A        75.9874   57.1721   35.6777 ac         1 CLA     -0.015100
     26 C1B        77.4844   59.6471   39.0151 cr         1 CLA      0.054700
     27 C1C        73.6605   59.0028   41.2391 cn         1 CLA     -0.005600
     28 C1D        72.1722   56.6780   37.8253 ap         1 CLA     -0.047300
     29 O1A        78.4040   55.3768   31.0730 o2         1 CLA     -0.610800
     30 O1D        76.2170   54.1496   33.4976 o2         1 CLA     -0.558200
     31 C2         80.8687   54.2043   34.2077 c8         1 CLA     -0.325100
     32 C2A        77.2278   57.0722   34.7957 a1         1 CLA      0.098600
     33 C2B        78.1670   60.4620   40.1352 cb         1 CLA      0.088500
     34 C2C        72.6648   58.5401   42.1839 cb         1 CLA      0.053700
     35 C2D        71.6110   55.7259   36.8904 cb         1 CLA      0.058900
     36 O2A        79.4062   55.7646   33.1222 o1         1 CLA     -0.437200
     37 O2D        74.8967   53.2344   35.1904 o1         1 CLA     -0.357600
     38 C3         82.0291   53.4815   34.0578 c5         1 CLA      0.031200
     39 C3A        78.3108   57.9088   35.5398 a1         1 CLA      0.166800
     40 C3B        77.1995   60.7141   41.1301 cb         1 CLA      0.035000
     41 C3C        71.8064   57.6716   41.4686 cb         1 CLA     -0.089900
     42 C3D        72.5471   55.6220   35.9011 cb         1 CLA     -0.035900
     43 C4         82.1967   52.1294   34.7935 a3         1 CLA     -0.053300
     44 C4A        77.5143   58.3156   36.8208 ac         1 CLA      0.001800
     45 C4B        75.9492   59.9513   40.7222 cn         1 CLA     -0.020900
     46 C4C        72.2877   57.6009   40.1141 cr         1 CLA     -0.044400
     47 C4D        73.6583   56.3936   36.3395 c6         1 CLA     -0.046000
     48 C5         83.3146   54.1886   33.6089 a2         1 CLA     -0.070400
     49 C6         83.7525   55.5108   34.1820 a2         1 CLA      0.043900
     50 C7         83.9311   55.3520   35.7571 a2         1 CLA     -0.150000
     51 C8         84.3958   56.6407   36.5225 a1         1 CLA      0.064200
     52 C9         85.8536   56.8537   36.1389 a3         1 CLA     -0.259300
     53 C10        84.2339   56.6550   38.0816 a2         1 CLA     -0.071900
     54 C11        82.8021   56.5082   38.5817 a2         1 CLA      0.014500
     55 C12        82.7383   56.9767   40.0577 a2         1 CLA     -0.112100
     56 C13        81.4983   56.5255   40.8632 a1         1 CLA      0.089200
     57 C14        80.2930   57.2510   40.4155 a3         1 CLA     -0.239100
     58 C15        81.7890   56.7732   42.4418 a2         1 CLA     -0.102200
     59 C16        82.1453   58.1500   42.7701 a2         1 CLA      0.023900
     60 C17        82.7483   58.2812   44.2014 a2         1 CLA     -0.105700
     61 C18        83.2419   59.7073   44.5645 a1         1 CLA      0.206800
     62 C19        82.2936   60.9280   44.2159 a3         1 CLA     -0.280100
     63 C20        83.6893   59.7802   45.9929 a3         1 CLA     -0.280100
     64 NC         73.4526   58.3049   40.0274 nx         1 CLA     -0.309200
     65 MG         74.7476   58.3683   38.3594 mg         1 CLA      0.895000
     66 HMD3       70.2902   54.0158   36.6794 dc         1 CLA      0.064300
     67 HMD2       70.1046   54.8098   38.1049 dc         1 CLA      0.064300
     68 HMD1       69.6666   55.6179   36.5234 dc         1 CLA      0.064300
     69 HMC3       72.8310   58.1531   44.1864 dc         1 CLA      0.052100
     70 HMC2       72.8517   59.9044   43.7851 dc         1 CLA      0.052100
     71 HMC1       71.4161   58.8027   43.7678 dc         1 CLA      0.052100
     72 HMB3       80.2606   60.8627   39.3105 dc         1 CLA      0.063600
     73 HMB2       79.4169   62.0404   40.1866 dc         1 CLA      0.063600
     74 HMB1       80.1483   60.7459   41.0628 dc         1 CLA      0.063600
     75 HMA3       80.2161   57.6997   36.6069 dc         1 CLA      0.058300
     76 HMA2       79.3612   56.1866   36.1614 dc         1 CLA      0.058300
     77 HMA1       80.1575   57.1515   34.8747 dc         1 CLA      0.058300
     78 HED3       75.4816   51.5272   34.0968 dc         1 CLA      0.079300
     79 HED2       76.7176   52.2074   35.0985 dc         1 CLA      0.079300
     80 HED1       75.4047   51.3685   35.9757 dc         1 CLA      0.079300
     81 HBC3       71.2802   55.1089   40.8792 dc         1 CLA      0.016300
     82 HBC2       71.6022   54.8782   42.5615 dc         1 CLA      0.016300
     83 HBC1       69.8980   54.8414   42.0598 dc         1 CLA      0.016300
     84 HBB2       76.8713   62.1575   44.3450 da         1 CLA      0.183000
     85 HBB1       75.5495   62.2534   42.8849 da         1 CLA      0.183000
     86 HBA2       77.8473   57.9849   31.4954 dc         1 CLA      0.029400
     87 HBA1       78.9292   57.9893   32.8230 dc         1 CLA      0.029400
     88 HAC2       70.3985   57.0403   43.0010 dc         1 CLA      0.029300
     89 HAC1       69.6602   57.1077   41.4014 dc         1 CLA      0.029300
     90 HAA2       76.3103   56.7255   32.8995 dc         1 CLA      0.028700
     91 HAA1       76.4749   58.4479   33.2801 dc         1 CLA      0.028700
     92 H203       82.8036   59.7088   46.6595 dc         1 CLA      0.065600
     93 H202       84.3279   58.9584   46.1901 dc         1 CLA      0.065600
     94 H201       84.2111   60.7076   46.1568 dc         1 CLA      0.065600
     95 H193       82.1259   61.0889   43.1760 dc         1 CLA      0.065600
     96 H192       81.3657   60.8306   44.7768 dc         1 CLA      0.065600
     97 H191       82.8301   61.7853   44.6256 dc         1 CLA      0.065600
     98 H172       82.0344   57.9237   44.9021 dc         1 CLA      0.027600
     99 H171       83.6275   57.6248   44.2816 dc         1 CLA      0.027600
    100 H162       82.9808   58.5509   42.1964 dc         1 CLA      0.002900
    101 H161       81.3312   58.8499   42.7205 dc         1 CLA      0.002900
    102 H152       80.9429   56.4623   43.0162 dc         1 CLA      0.029100
    103 H151       82.6889   56.1687   42.6267 dc         1 CLA      0.029100
    104 H143       79.3709   56.7493   40.8001 dc         1 CLA      0.063600
    105 H142       80.4075   58.3058   40.6394 dc         1 CLA      0.063600
    106 H141       80.2181   57.2246   39.3059 dc         1 CLA      0.063600
    107 H122       83.5850   56.6885   40.6090 dc         1 CLA      0.032500
    108 H121       82.7700   58.0602   39.9799 dc         1 CLA      0.032500
    109 H112       82.1022   57.1276   37.9440 dc         1 CLA      0.006600
    110 H111       82.6185   55.4135   38.5135 dc         1 CLA      0.006600
    111 H102       84.7988   55.7916   38.3445 dc         1 CLA      0.024100
    112 H101       84.6460   57.6048   38.4320 dc         1 CLA      0.024100
    113 HHD        70.6079   56.5027   39.4007 da         1 CLA      0.174300
    114 HHC        74.8798   60.1251   42.5109 da         1 CLA      0.136800
    115 HHB        79.0825   59.4776   37.6432 da         1 CLA      0.138300
    116 HBD        74.2032   55.9458   33.4914 dc         1 CLA      0.107700
    117 HAB        78.4062   61.0851   42.8717 da         1 CLA      0.155200
    118 H93        85.8840   57.1379   35.1548 dc         1 CLA      0.069500
    119 H92        86.2566   57.6619   36.6858 dc         1 CLA      0.069500
    120 H91        86.4410   55.9508   36.3009 dc         1 CLA      0.069500
    121 H8         83.9571   57.5811   36.1402 dc         1 CLA      0.029300
    122 H72        82.9502   55.1110   36.1165 dc         1 CLA      0.044400
    123 H71        84.6623   54.6119   35.8448 dc         1 CLA      0.044400
    124 H62        84.7617   55.7566   33.8602 dc         1 CLA      0.015600
    125 H61        83.0792   56.3760   34.0697 dc         1 CLA      0.015600
    126 H52        84.1008   53.4716   33.9293 dc         1 CLA      0.033200
    127 H51        83.3944   54.0684   32.4915 dc         1 CLA      0.033200
    128 H43        81.1484   51.8887   35.1731 dc         1 CLA      0.037000
    129 H42        82.6807   51.3872   34.1185 dc         1 CLA      0.037000
    130 H41        82.9216   52.3296   35.6401 dc         1 CLA      0.037000
    131 H3A        78.5651   58.7722   34.8444 dc         1 CLA      0.041100
    132 H2A        77.5707   56.0076   34.7974 dc         1 CLA      0.083100
    133 H2         80.8737   54.9021   35.1236 da         1 CLA      0.180900
    134 H18        84.1662   59.9366   44.0104 dc         1 CLA     -0.003900
    135 H13        81.3347   55.4235   40.8081 dc         1 CLA      0.019700
    136 H12        78.8854   53.6422   33.3631 dc         1 CLA      0.120400
    137 H11        80.3762   54.0353   32.2498 dc         1 CLA      0.120400
    138 C1         67.7013   60.4448   49.2028 Z1         2 LUT      0.509236
    139 C2         66.2526   60.1283   49.7189 Z2         2 LUT     -0.434695
    140 C3         65.3319   61.2752   50.0298 Z3         2 LUT      0.437453
    141 O3         65.2830   61.2937   51.4293 S1         2 LUT     -0.547129
    142 C4         65.8840   62.6166   49.4700 Z4         2 LUT     -0.468603
    143 C5         66.6715   62.5368   48.1133 Z5         2 LUT      0.279246
    144 C6         67.4990   61.4886   48.0070 Z6         2 LUT     -0.305473
    145 C7         67.7406   60.9837   46.5580 Z7         2 LUT      0.069402
    146 C8         68.9096   61.1503   45.9519 Z8         2 LUT     -0.191631
    147 C9         69.2079   60.9644   44.5010 Z9         2 LUT      0.196698
    148 C10        70.2293   61.8299   44.0423 Y1         2 LUT     -0.208611
    149 C11        70.8896   61.9253   42.7514 Y2         2 LUT      0.030784
    150 C12        71.9106   62.8129   42.3739 Y3         2 LUT     -0.220316
    151 C13        72.7136   62.9224   41.2013 Y4         2 LUT      0.215937
    152 C14        73.9144   63.5765   41.2433 Y5         2 LUT     -0.185793
    153 C15        75.0113   63.4526   40.3905 Y6         2 LUT     -0.057835
    154 C16        68.2023   59.0395   48.7979 Y7         2 LUT     -0.405615
    155 C17        68.6238   61.0505   50.2635 Y7         2 LUT     -0.405615
    156 C18        66.0010   63.3036   47.0071 Y9         2 LUT     -0.369639
    157 C19        68.3624   60.0499   43.6485 W1         2 LUT     -0.333362
    158 C20        72.3147   62.0835   40.0035 W2         2 LUT     -0.323439
    159 C21        86.5583   64.3282   34.0941 Z1         2 LUT      0.406104
    160 C22        87.3169   63.6345   32.9421 Z2         2 LUT     -0.404965
    161 C23        87.3900   64.5625   31.7222 Z3         2 LUT      0.391255
    162 O23        87.7346   63.8336   30.5244 S1         2 LUT     -0.528210
    163 C24        86.1167   65.3384   31.4506 W6         2 LUT     -0.258361
    164 C25        85.1186   65.5045   32.2714 Z5         2 LUT      0.133546
    165 C26        85.0696   64.7183   33.6161 W8         2 LUT     -0.147008
    166 C27        84.3076   65.4862   34.6495 Z7         2 LUT      0.023843
    167 C28        83.2350   65.0221   35.2949 Z8         2 LUT     -0.216987
    168 C29        82.4349   65.5914   36.4009 Z9         2 LUT      0.206524
    169 C30        81.3968   64.9290   37.0455 Y1         2 LUT     -0.215556
    170 C31        80.4882   65.3786   38.1343 Y2         2 LUT      0.025142
    171 C32        79.3782   64.7504   38.5699 Y3         2 LUT     -0.212209
    172 C33        78.3997   65.0674   39.5661 Y4         2 LUT      0.240937
    173 C34        77.3186   64.2402   39.6680 Y5         2 LUT     -0.218862
    174 C35        76.1670   64.1428   40.6045 Y6         2 LUT     -0.023547
    175 C36        87.3931   65.4785   34.6148 Y7         2 LUT     -0.393485
    176 C37        86.3768   63.2054   35.1900 Y7         2 LUT     -0.393485
    177 C38        83.9433   66.3785   31.9474 Y9         2 LUT     -0.387526
    178 C39        82.8469   67.0164   36.8174 W1         2 LUT     -0.322618
    179 C40        78.5796   66.3901   40.3617 W2         2 LUT     -0.358472
    180 H403       78.3094   67.1907   39.7254 R7         2 LUT      0.097720
    181 H402       78.0278   66.3852   41.2203 R7         2 LUT      0.097720
    182 H401       79.5293   66.5770   40.6807 R7         2 LUT      0.097720
    183 H393       82.3630   67.7203   36.1969 R4         2 LUT      0.082505
    184 H392       82.6281   67.3541   37.8402 R4         2 LUT      0.082505
    185 H391       83.9679   67.0586   36.7536 R4         2 LUT      0.082505
    186 H383       83.6058   67.1938   32.5940 R1         2 LUT      0.104030
    187 H382       84.1709   66.8695   31.0323 R1         2 LUT      0.104030
    188 H381       83.0036   65.7955   31.8904 R1         2 LUT      0.104030
    189 H373       85.7513   62.4008   34.7486 T4         2 LUT      0.089537
    190 H372       87.2933   62.6631   35.4779 T4         2 LUT      0.089537
    191 H371       85.7534   63.4630   36.0546 T4         2 LUT      0.089537
    192 H363       86.8763   65.9415   35.5436 T4         2 LUT      0.089537
    193 H362       88.3103   65.0821   35.1183 T4         2 LUT      0.089537
    194 H361       87.5358   66.3010   33.9187 T4         2 LUT      0.089537
    195 H222       88.3490   63.2449   33.1919 U2         2 LUT      0.127376
    196 H221       86.6744   62.7721   32.5676 U2         2 LUT      0.127376
    197 H203       72.8928   62.2406   39.1148 R7         2 LUT      0.087068
    198 H202       72.4893   61.0100   40.2078 R7         2 LUT      0.087068
    199 H201       71.2323   62.2938   39.7260 R7         2 LUT      0.087068
    200 H193       67.6954   60.6876   43.0460 R4         2 LUT      0.089716
    201 H192       69.0117   59.5449   42.9026 R4         2 LUT      0.089716
    202 H191       67.6794   59.3803   44.2390 R4         2 LUT      0.089716
    203 H183       66.7361   63.4499   46.1642 R1         2 LUT      0.094572
    204 H182       65.0632   62.7617   46.8225 R1         2 LUT      0.094572
    205 H181       65.6870   64.2774   47.3227 R1         2 LUT      0.094572
    206 H173       68.2805   62.0910   50.4526 T4         2 LUT      0.093752
    207 H172       68.3168   60.5245   51.2621 T4         2 LUT      0.093752
    208 H171       69.6603   60.9237   49.9351 T4         2 LUT      0.093752
    209 H163       69.1710   59.1090   48.2979 T4         2 LUT      0.093752
    210 H162       68.1737   58.2955   49.5929 T4         2 LUT      0.093752
    211 H161       67.5398   58.6003   48.0554 T4         2 LUT      0.093752
    212 HO3        64.3581   61.3074   51.7242 Q1         2 LUT      0.300121
    213 H8         69.6494   61.7082   46.5063 U7         2 LUT      0.080784
    214 H7         66.8569   60.8579   45.9008 U6         2 LUT      0.042190
    215 H42        64.9187   63.1122   49.1797 U5         2 LUT      0.145166
    216 H41        66.5535   63.1051   50.1703 U5         2 LUT      0.145166
    217 H35        76.0562   64.7881   41.4790 T3         2 LUT      0.077919
    218 H34        77.3789   63.3701   39.0073 T2         2 LUT      0.073626
    219 H32        79.1305   63.8060   38.0789 T1         2 LUT      0.092510
    220 H31        80.7452   66.2738   38.6279 U9         2 LUT      0.070048
    221 H30        81.1620   63.9480   36.6417 U8         2 LUT      0.085442
    222 H3         64.3675   61.0984   49.5082 U3         2 LUT     -0.031596
    223 H28        82.8587   64.0315   34.9472 U7         2 LUT      0.084728
    224 H27        84.7243   66.4696   34.7754 U6         2 LUT      0.087291
    225 H26        84.6090   63.7597   33.4074 Q6         2 LUT      0.075325
    226 H24        86.0943   65.9288   30.4866 Q5         2 LUT      0.094482
    227 H23        88.2965   65.1728   31.9813 U3         2 LUT     -0.024869
    228 H22        65.7129   59.5861   48.9392 U2         2 LUT      0.127376
    229 H21        66.3102   59.3371   50.5020 U2         2 LUT      0.127376
    230 H15        74.9055   62.8425   39.5047 T3         2 LUT      0.093200
    231 H14        74.1622   64.1332   42.1675 T2         2 LUT      0.068865
    232 H12        72.3242   63.3804   43.2056 T1         2 LUT      0.095507
    233 H11        70.4201   61.3186   42.0073 U9         2 LUT      0.068930
    234 H10        70.6436   62.5779   44.7201 U8         2 LUT      0.083911
    235 H1         88.2081   64.3306   29.8509 Q1         2 LUT      0.297311
@<TRIPOS>BOND
    1     6     1 1
    2     7     2 1
    3     8     3 1
    4     9     4 1
    5    11     4 1
    6    12     6 1
    7    13     9 1
    8    16     9 1
    9    25     5 1
   10    25    16 1
   11    26    10 1
   12    26    17 1
   13    27    18 1
   14    28    14 1
   15    28    19 1
   16    29    12 1
   17    30    13 1
   18    31    24 1
   19    32     1 1
   20    32    25 1
   21    33    21 1
   22    33    26 1
   23    34    22 1
   24    34    27 1
   25    35    23 1
   26    35    28 1
   27    36    12 1
   28    36    24 1
   29    37    13 1
   30    37    15 1
   31    38    31 1
   32    39    20 1
   33    39    32 1
   34    40     2 1
   35    40    33 1
   36    41     3 1
   37    41    34 1
   38    42     4 1
   39    42    35 1
   40    43    38 1
   41    44     5 1
   42    44    17 1
   43    44    39 1
   44    45    10 1
   45    45    18 1
   46    45    40 1
   47    46    19 1
   48    46    41 1
   49    47    14 1
   50    47    16 1
   51    47    42 1
   52    48    38 1
   53    49    48 1
   54    50    49 1
   55    51    50 1
   56    52    51 1
   57    53    51 1
   58    54    53 1
   59    55    54 1
   60    56    55 1
   61    57    56 1
   62    58    56 1
   63    59    58 1
   64    60    59 1
   65    61    60 1
   66    62    61 1
   67    63    61 1
   68    64    27 1
   69    64    46 1
   70    65     5 1
   71    65    10 1
   72    65    64 1
   73    65    14 1
   74    66    23 1
   75    67    23 1
   76    68    23 1
   77    69    22 1
   78    70    22 1
   79    71    22 1
   80    72    21 1
   81    73    21 1
   82    74    21 1
   83    75    20 1
   84    76    20 1
   85    77    20 1
   86    78    15 1
   87    79    15 1
   88    80    15 1
   89    81     8 1
   90    82     8 1
   91    83     8 1
   92    84     7 1
   93    85     7 1
   94    86     6 1
   95    87     6 1
   96    88     3 1
   97    89     3 1
   98    90     1 1
   99    91     1 1
  100    92    63 1
  101    93    63 1
  102    94    63 1
  103    95    62 1
  104    96    62 1
  105    97    62 1
  106    98    60 1
  107    99    60 1
  108   100    59 1
  109   101    59 1
  110   102    58 1
  111   103    58 1
  112   104    57 1
  113   105    57 1
  114   106    57 1
  115   107    55 1
  116   108    55 1
  117   109    54 1
  118   110    54 1
  119   111    53 1
  120   112    53 1
  121   113    19 1
  122   114    18 1
  123   115    17 1
  124   116     9 1
  125   117     2 1
  126   118    52 1
  127   119    52 1
  128   120    52 1
  129   121    51 1
  130   122    50 1
  131   123    50 1
  132   124    49 1
  133   125    49 1
  134   126    48 1
  135   127    48 1
  136   128    43 1
  137   129    43 1
  138   130    43 1
  139   131    39 1
  140   132    32 1
  141   133    31 1
  142   134    61 1
  143   135    56 1
  144   136    24 1
  145   137    24 1
  146   139   138 1
  147   140   139 1
  148   141   140 1
  149   142   140 1
  150   143   142 1
  151   144   138 1
  152   144   143 1
  153   145   144 1
  154   146   145 1
  155   147   146 1
  156   148   147 1
  157   149   148 1
  158   150   149 1
  159   151   150 1
  160   152   151 1
  161   153   152 1
  162   154   138 1
  163   155   138 1
  164   156   143 1
  165   157   147 1
  166   158   151 1
  167   160   159 1
  168   161   160 1
  169   162   161 1
  170   163   161 1
  171   164   163 1
  172   165   159 1
  173   165   164 1
  174   166   165 1
  175   167   166 1
  176   168   167 1
  177   169   168 1
  178   170   169 1
  179   171   170 1
  180   172   171 1
  181   173   172 1
  182   174   153 1
  183   174   173 1
  184   175   159 1
  185   176   159 1
  186   177   164 1
  187   178   168 1
  188   179   172 1
  189   180   179 1
  190   181   179 1
  191   182   179 1
  192   183   178 1
  193   184   178 1
  194   185   178 1
  195   186   177 1
  196   187   177 1
  197   188   177 1
  198   189   176 1
  199   190   176 1
  200   191   176 1
  201   192   175 1
  202   193   175 1
  203   194   175 1
  204   195   160 1
  205   196   160 1
  206   197   158 1
  207   198   158 1
  208   199   158 1
  209   200   157 1
  210   201   157 1
  211   202   157 1
  212   203   156 1
  213   204   156 1
  214   205   156 1
  215   206   155 1
  216   207   155 1
  217   208   155 1
  218   209   154 1
  219   210   154 1
  220   211   154 1
  221   212   141 1
  222   213   146 1
  223   214   145 1
  224   215   142 1
  225   216   142 1
  226   217   174 1
  227   218   173 1
  228   219   171 1
  229   220   170 1
  230   221   169 1
  231   222   140 1
  232   223   167 1
  233   224   166 1
  234   225   165 1
  235   226   163 1
  236   227   161 1
  237   228   139 1
  238   229   139 1
  239   230   153 1
  240   231   152 1
  241   232   150 1
  242   233   149 1
  243   234   148 1
  244   235   162 1
  245   65    153 1
  246   65    174 1
@<TRIPOS>SUBSTRUCTURE
      1 CLA               1 ****               0 ****  **** 
      2 LUT             138 ****               0 ****  **** 
