@<TRIPOS>MOLECULE
Cpptraj generated mol2 file.
  235   246     2     0     0
SMALL
USER_CHARGES


@<TRIPOS>ATOM
      1 CAA        79.7912   58.1604   34.6587 a2         1 CLA     -0.055900
      2 CAB        79.2182   62.6427   43.2618 c8         1 CLA     -0.148500
      3 CAC        72.6008   57.9052   43.0302 a2         1 CLA     -0.012600
      4 CAD        75.6635   55.4115   35.9192 ck         1 CLA      0.398800
      5 NA         78.5624   58.6144   38.1027 ns         1 CLA     -0.225500
      6 CBA        81.1194   57.9270   33.8749 a2         1 CLA     -0.135000
      7 CBB        80.3372   62.6009   44.0109 c0         1 CLA     -0.395200
      8 CBC        72.9511   56.4724   43.3964 a3         1 CLA     -0.037700
      9 CBD        77.2047   55.8796   35.6356 a1         1 CLA     -0.053900
     10 NB         78.2089   60.4024   40.4633 nm         1 CLA     -0.295700
     11 OBD        75.1086   54.5669   35.2531 o2         1 CLA     -0.494600
     12 CGA        81.5419   56.4250   33.5915 c4         1 CLA      0.827000
     13 CGD        78.1227   54.6758   35.7080 c4         1 CLA      0.655300
     14 ND         75.8009   57.7053   38.5187 nm         1 CLA     -0.291600
     15 CED        78.7085   52.7832   37.1177 a3         1 CLA      0.005400
     16 CHA        77.4166   56.9199   36.7973 cs         1 CLA     -0.123800
     17 CHB        80.2247   60.1476   39.0471 aa         1 CLA     -0.291900
     18 CHC        76.8684   60.6957   42.5452 aa         1 CLA     -0.090400
     19 CHD        73.9514   57.5441   40.2203 aa         1 CLA     -0.052000
     20 CMA        82.0298   57.9244   37.6083 a3         1 CLA     -0.230700
     21 CMB        81.4419   62.2665   40.9444 a3         1 CLA     -0.180800
     22 CMC        74.6507   59.9430   44.6216 a3         1 CLA     -0.134000
     23 CMD        72.7598   55.5766   38.1873 a3         1 CLA     -0.141100
     24 C1         82.5817   54.5217   34.7186 a2         1 CLA      0.023000
     25 C1A        78.4874   57.7269   37.0248 ac         1 CLA     -0.015100
     26 C1B        79.5139   60.7272   40.1043 cr         1 CLA      0.054700
     27 C1C        75.7530   59.8947   42.2597 cn         1 CLA     -0.005600
     28 C1D        74.5594   57.2228   38.9880 ap         1 CLA     -0.047300
     29 O1A        81.3396   55.7464   32.5974 o2         1 CLA     -0.610800
     30 O1D        78.9978   54.3797   34.8598 o2         1 CLA     -0.558200
     31 C2         83.6125   54.3136   35.8314 c8         1 CLA     -0.325100
     32 C2A        79.8137   57.7297   36.1697 a1         1 CLA      0.098600
     33 C2B        80.0474   61.6988   41.0125 cb         1 CLA      0.088500
     34 C2C        74.6871   59.4804   43.2127 cb         1 CLA      0.053700
     35 C2D        74.0326   56.2992   37.9884 cb         1 CLA      0.058900
     36 O2A        82.2649   55.9485   34.6559 o1         1 CLA     -0.437200
     37 O2D        77.8130   53.8757   36.7945 o1         1 CLA     -0.357600
     38 C3         84.9122   54.6103   35.6867 c5         1 CLA      0.031200
     39 C3A        80.7627   58.6373   37.0759 a1         1 CLA      0.166800
     40 C3B        79.1290   61.8488   42.0349 cb         1 CLA      0.035000
     41 C3C        73.8250   58.6535   42.4902 cb         1 CLA     -0.089900
     42 C3D        75.1597   56.1312   37.0839 cb         1 CLA     -0.035900
     43 C4         85.8988   53.5871   35.1478 a3         1 CLA     -0.053300
     44 C4A        79.8234   59.1810   38.1219 ac         1 CLA      0.001800
     45 C4B        77.9850   60.9770   41.7184 cn         1 CLA     -0.020900
     46 C4C        74.4231   58.4495   41.2090 cr         1 CLA     -0.044400
     47 C4D        76.1879   56.9696   37.5424 c6         1 CLA     -0.046000
     48 C5         85.3564   55.9289   36.2738 a2         1 CLA     -0.070400
     49 C6         86.5333   55.8733   37.2763 a2         1 CLA      0.043900
     50 C7         86.9008   57.2605   37.7299 a2         1 CLA     -0.150000
     51 C8         88.1899   57.3240   38.6969 a1         1 CLA      0.064200
     52 C9         89.4786   56.6719   38.2426 a3         1 CLA     -0.259300
     53 C10        87.9281   56.9763   40.1948 a2         1 CLA     -0.071900
     54 C11        88.9179   57.6865   41.1489 a2         1 CLA      0.014500
     55 C12        88.5280   57.5473   42.6348 a2         1 CLA     -0.112100
     56 C13        89.3021   58.2110   43.8153 a1         1 CLA      0.089200
     57 C14        90.8077   57.9268   43.8149 a3         1 CLA     -0.239100
     58 C15        88.6541   57.8361   45.1628 a2         1 CLA     -0.102200
     59 C16        88.9024   58.6062   46.4790 a2         1 CLA      0.023900
     60 C17        88.2074   59.9654   46.4373 a2         1 CLA     -0.105700
     61 C18        86.6837   60.1459   46.8269 a1         1 CLA      0.206800
     62 C19        86.3368   59.6176   48.2318 a3         1 CLA     -0.280100
     63 C20        86.4737   61.6706   46.6099 a3         1 CLA     -0.280100
     64 NC         75.5183   59.2070   41.0881 nx         1 CLA     -0.309200
     65 MG         76.9612   59.1315   39.4902 mg         1 CLA      0.895000
     66 HMD3       72.7378   54.9543   39.0262 dc         1 CLA      0.064300
     67 HMD2       71.8629   56.2242   38.4496 dc         1 CLA      0.064300
     68 HMD1       72.6166   55.0873   37.1610 dc         1 CLA      0.064300
     69 HMC3       75.6321   59.8749   45.1011 dc         1 CLA      0.052100
     70 HMC2       74.3693   60.9519   44.8847 dc         1 CLA      0.052100
     71 HMC1       73.8914   59.3542   45.1573 dc         1 CLA      0.052100
     72 HMB3       82.0575   61.4611   41.1378 dc         1 CLA      0.063600
     73 HMB2       81.6795   62.6104   39.9804 dc         1 CLA      0.063600
     74 HMB1       81.5151   63.1270   41.6006 dc         1 CLA      0.063600
     75 HMA3       81.7563   57.0575   38.2050 dc         1 CLA      0.058300
     76 HMA2       82.6815   57.6210   36.7962 dc         1 CLA      0.058300
     77 HMA1       82.5254   58.6537   38.2980 dc         1 CLA      0.058300
     78 HED3       78.7491   52.0457   36.3093 dc         1 CLA      0.079300
     79 HED2       79.7100   53.1986   37.1777 dc         1 CLA      0.079300
     80 HED1       78.4313   52.2362   38.0267 dc         1 CLA      0.079300
     81 HBC3       73.4526   56.0145   42.5063 dc         1 CLA      0.016300
     82 HBC2       73.5937   56.4735   44.2309 dc         1 CLA      0.016300
     83 HBC1       72.0884   55.8708   43.5675 dc         1 CLA      0.016300
     84 HBB2       80.1966   63.0852   44.9912 da         1 CLA      0.183000
     85 HBB1       81.2269   61.9348   43.8292 da         1 CLA      0.183000
     86 HBA2       81.0042   58.3945   32.9097 dc         1 CLA      0.029400
     87 HBA1       82.0115   58.4298   34.3801 dc         1 CLA      0.029400
     88 HAC2       72.1886   58.3591   43.9610 dc         1 CLA      0.029300
     89 HAC1       71.8559   57.9556   42.3116 dc         1 CLA      0.029300
     90 HAA2       78.9136   57.7953   34.0998 dc         1 CLA      0.028700
     91 HAA1       79.6700   59.2675   34.6615 dc         1 CLA      0.028700
     92 H203       87.0476   62.2570   47.3142 dc         1 CLA      0.065600
     93 H202       86.9067   61.9433   45.6197 dc         1 CLA      0.065600
     94 H201       85.4636   61.9496   46.7455 dc         1 CLA      0.065600
     95 H193       86.5362   58.5494   48.1774 dc         1 CLA      0.065600
     96 H192       87.0854   59.9813   48.9465 dc         1 CLA      0.065600
     97 H191       85.3594   59.8367   48.6009 dc         1 CLA      0.065600
     98 H172       88.6577   60.5678   47.1765 dc         1 CLA      0.027600
     99 H171       88.5583   60.4847   45.4874 dc         1 CLA      0.027600
    100 H162       88.4162   58.1354   47.3517 dc         1 CLA      0.002900
    101 H161       89.9591   58.7635   46.7057 dc         1 CLA      0.002900
    102 H152       87.6390   58.0957   44.9300 dc         1 CLA      0.029100
    103 H151       88.7589   56.7898   45.3576 dc         1 CLA      0.029100
    104 H143       91.2611   58.2718   44.7021 dc         1 CLA      0.063600
    105 H142       91.1470   56.8913   43.5854 dc         1 CLA      0.063600
    106 H141       91.2612   58.4996   43.0321 dc         1 CLA      0.063600
    107 H122       87.5036   57.9289   42.8780 dc         1 CLA      0.032500
    108 H121       88.5338   56.4533   42.8162 dc         1 CLA      0.032500
    109 H112       89.9310   57.4306   40.9633 dc         1 CLA      0.006600
    110 H111       88.9064   58.7543   40.9222 dc         1 CLA      0.006600
    111 H102       86.8961   57.3045   40.5342 dc         1 CLA      0.024100
    112 H101       87.9444   55.9181   40.3024 dc         1 CLA      0.024100
    113 HHD        73.0421   57.0469   40.4712 da         1 CLA      0.174300
    114 HHC        76.8880   61.1094   43.5788 da         1 CLA      0.136800
    115 HHB        81.2471   60.5639   38.9548 da         1 CLA      0.138300
    116 HBD        77.2455   56.3304   34.6344 dc         1 CLA      0.107700
    117 HAB        78.3614   63.1850   43.6051 da         1 CLA      0.155200
    118 H93        90.1899   56.9584   39.0052 dc         1 CLA      0.069500
    119 H92        89.3953   55.5713   38.1209 dc         1 CLA      0.069500
    120 H91        89.8158   57.0953   37.3415 dc         1 CLA      0.069500
    121 H8         88.3336   58.4329   38.6974 dc         1 CLA      0.029300
    122 H72        87.1477   57.7664   36.8312 dc         1 CLA      0.044400
    123 H71        86.0750   57.8238   38.1718 dc         1 CLA      0.044400
    124 H62        86.3200   55.1154   38.0158 dc         1 CLA      0.015600
    125 H61        87.4005   55.5757   36.7124 dc         1 CLA      0.015600
    126 H52        85.6780   56.5947   35.4604 dc         1 CLA      0.033200
    127 H51        84.4439   56.4315   36.6757 dc         1 CLA      0.033200
    128 H43        86.7655   53.4732   35.7598 dc         1 CLA      0.037000
    129 H42        85.3917   52.6308   35.1158 dc         1 CLA      0.037000
    130 H41        86.1709   53.7739   34.1479 dc         1 CLA      0.037000
    131 H3A        81.0294   59.5699   36.5006 dc         1 CLA      0.041100
    132 H2A        80.1270   56.6131   36.1620 dc         1 CLA      0.083100
    133 H2         83.2211   53.9759   36.7899 da         1 CLA      0.180900
    134 H18        85.9686   59.6235   46.1923 dc         1 CLA     -0.003900
    135 H13        89.1296   59.3023   43.7363 dc         1 CLA      0.019700
    136 H12        81.6638   53.8594   34.7168 dc         1 CLA      0.120400
    137 H11        83.1530   54.2255   33.8292 dc         1 CLA      0.120400
    138 C1         69.8704   62.4442   49.8230 Z1         2 LUT      0.509236
    139 C2         68.5161   62.0633   50.4262 Z2         2 LUT     -0.434695
    140 C3         67.4723   63.1957   50.7535 Z3         2 LUT      0.437453
    141 O3         67.1551   63.3106   52.1457 S1         2 LUT     -0.547129
    142 C4         67.8558   64.4695   50.0537 Z4         2 LUT     -0.468603
    143 C5         68.4932   64.2659   48.7253 Z5         2 LUT      0.279246
    144 C6         69.5304   63.3762   48.6199 Z6         2 LUT     -0.305473
    145 C7         69.8958   62.8687   47.3302 Z7         2 LUT      0.069402
    146 C8         71.0744   63.0968   46.7557 Z8         2 LUT     -0.191631
    147 C9         71.5265   62.7027   45.3856 Z9         2 LUT      0.196698
    148 C10        72.6908   63.3140   44.8950 Y1         2 LUT     -0.208611
    149 C11        73.3639   63.3226   43.6164 Y2         2 LUT      0.030784
    150 C12        74.5122   64.0261   43.3192 Y3         2 LUT     -0.220316
    151 C13        75.2016   63.9208   42.0739 Y4         2 LUT      0.215937
    152 C14        76.4763   64.4996   42.1270 Y5         2 LUT     -0.185793
    153 C15        77.5813   64.4709   41.1218 Y6         2 LUT     -0.057835
    154 C16        70.6011   61.1433   49.3841 Y7         2 LUT     -0.405615
    155 C17        70.5976   63.2677   50.8393 Y7         2 LUT     -0.405615
    156 C18        67.7486   64.9105   47.5340 Y9         2 LUT     -0.369639
    157 C19        70.7267   61.7716   44.5120 W1         2 LUT     -0.333362
    158 C20        74.6766   63.3547   40.7570 W2         2 LUT     -0.323439
    159 C21        88.7554   65.4909   34.8585 Z1         2 LUT      0.406104
    160 C22        89.4352   64.7126   33.7462 Z2         2 LUT     -0.404965
    161 C23        89.6433   65.4327   32.4334 Z3         2 LUT      0.391255
    162 O23        90.0276   64.3598   31.6197 S1         2 LUT     -0.528210
    163 C24        88.4850   66.3133   32.0100 W6         2 LUT     -0.258361
    164 C25        87.4706   66.6120   32.8371 Z5         2 LUT      0.133546
    165 C26        87.3935   66.0260   34.2747 W8         2 LUT     -0.147008
    166 C27        86.5245   66.8395   35.3112 Z7         2 LUT      0.023843
    167 C28        85.5126   66.2099   36.0271 Z8         2 LUT     -0.216987
    168 C29        85.0364   66.5772   37.3869 Z9         2 LUT      0.206524
    169 C30        83.7651   66.0957   37.6871 Y1         2 LUT     -0.215556
    170 C31        83.1104   66.3191   38.9898 Y2         2 LUT      0.025142
    171 C32        81.8203   65.8859   39.2079 Y3         2 LUT     -0.212209
    172 C33        80.9374   66.0550   40.3855 Y4         2 LUT      0.240937
    173 C34        79.7644   65.3804   40.4350 Y5         2 LUT     -0.218862
    174 C35        78.6205   65.3350   41.3079 Y6         2 LUT     -0.023547
    175 C36        89.7545   66.6087   35.2307 Y7         2 LUT     -0.393485
    176 C37        88.6090   64.5481   36.1018 Y7         2 LUT     -0.393485
    177 C38        86.3505   67.4892   32.3003 Y9         2 LUT     -0.387526
    178 C39        85.7590   67.5350   38.3402 W1         2 LUT     -0.322618
    179 C40        81.3308   67.1320   41.3809 W2         2 LUT     -0.358472
    180 H403       82.2771   66.8310   41.8476 R7         2 LUT      0.097720
    181 H402       81.4718   68.0765   40.8090 R7         2 LUT      0.097720
    182 H401       80.6113   67.3822   42.1773 R7         2 LUT      0.097720
    183 H393       86.6226   68.1088   38.0136 R4         2 LUT      0.082505
    184 H392       85.0847   68.3219   38.6591 R4         2 LUT      0.082505
    185 H391       86.0775   66.9417   39.1974 R4         2 LUT      0.082505
    186 H383       86.5140   68.0639   31.3526 R1         2 LUT      0.104030
    187 H382       85.5188   66.7966   32.2335 R1         2 LUT      0.104030
    188 H381       85.9865   68.2089   33.0518 R1         2 LUT      0.104030
    189 H373       88.0874   65.1358   36.9591 T4         2 LUT      0.089537
    190 H372       88.0373   63.5959   35.8574 T4         2 LUT      0.089537
    191 H371       89.5874   64.1806   36.3550 T4         2 LUT      0.089537
    192 H363       89.6474   67.0888   36.2277 T4         2 LUT      0.089537
    193 H362       90.8221   66.2152   35.2808 T4         2 LUT      0.089537
    194 H361       89.7076   67.4001   34.4525 T4         2 LUT      0.089537
    195 H222       90.3750   64.4009   34.1086 U2         2 LUT      0.127376
    196 H221       88.7751   63.8567   33.4422 U2         2 LUT      0.127376
    197 H203       74.7233   64.1523   39.9622 R7         2 LUT      0.087068
    198 H202       75.2778   62.5793   40.5144 R7         2 LUT      0.087068
    199 H201       73.6636   62.9968   40.6943 R7         2 LUT      0.087068
    200 H193       69.8329   62.2658   44.1138 R4         2 LUT      0.089716
    201 H192       71.3316   61.3677   43.7571 R4         2 LUT      0.089716
    202 H191       70.3417   60.9166   45.1209 R4         2 LUT      0.089716
    203 H183       68.3778   65.5246   46.9255 R1         2 LUT      0.094572
    204 H182       67.2718   64.1466   46.9461 R1         2 LUT      0.094572
    205 H181       66.9944   65.5915   47.8205 R1         2 LUT      0.094572
    206 H173       70.1839   64.1283   51.3010 T4         2 LUT      0.093752
    207 H172       70.9867   62.8204   51.7055 T4         2 LUT      0.093752
    208 H171       71.4934   63.6300   50.3124 T4         2 LUT      0.093752
    209 H163       71.4820   61.3801   48.7519 T4         2 LUT      0.093752
    210 H162       70.9948   60.5570   50.2557 T4         2 LUT      0.093752
    211 H161       69.9787   60.6228   48.6669 T4         2 LUT      0.093752
    212 HO3        67.9272   63.3788   52.7826 Q1         2 LUT      0.300121
    213 H8         71.8276   63.6047   47.3272 U7         2 LUT      0.080784
    214 H7         69.0226   62.5757   46.7707 U6         2 LUT      0.042190
    215 H42        66.8939   64.8936   49.8854 U5         2 LUT      0.145166
    216 H41        68.2600   65.3143   50.6990 U5         2 LUT      0.145166
    217 H35        78.5868   66.0026   42.1754 T3         2 LUT      0.077919
    218 H34        79.5485   64.7438   39.5657 T2         2 LUT      0.073626
    219 H32        81.3093   65.4489   38.2753 T1         2 LUT      0.092510
    220 H31        83.6659   66.9102   39.7068 U9         2 LUT      0.070048
    221 H30        83.2979   65.4355   36.9559 U8         2 LUT      0.085442
    222 H3         66.4636   62.9952   50.3985 U3         2 LUT     -0.031596
    223 H28        85.0512   65.3591   35.5260 U7         2 LUT      0.084728
    224 H27        86.9131   67.7855   35.7218 U6         2 LUT      0.087291
    225 H26        86.8358   65.0983   34.1071 Q6         2 LUT      0.075325
    226 H24        88.4325   66.7317   31.0068 Q5         2 LUT      0.094482
    227 H23        90.5394   66.1621   32.5659 U3         2 LUT     -0.024869
    228 H22        67.9771   61.4682   49.6792 U2         2 LUT      0.127376
    229 H21        68.5901   61.4513   51.2944 U2         2 LUT      0.127376
    230 H15        77.5151   63.7611   40.3341 T3         2 LUT      0.093200
    231 H14        76.7373   65.0487   43.0468 T2         2 LUT      0.068865
    232 H12        74.9737   64.6012   44.1180 T1         2 LUT      0.095507
    233 H11        72.9604   62.6331   42.8426 U9         2 LUT      0.068930
    234 H10        73.1942   64.0027   45.4936 U8         2 LUT      0.083911
    235 H1         90.0923   64.6959   30.7062 Q1         2 LUT      0.297311
@<TRIPOS>BOND
    1     6     1 1
    2     7     2 1
    3     8     3 1
    4     9     4 1
    5    11     4 1
    6    12     6 1
    7    13     9 1
    8    16     9 1
    9    25     5 1
   10    25    16 1
   11    26    10 1
   12    26    17 1
   13    27    18 1
   14    28    14 1
   15    28    19 1
   16    29    12 1
   17    30    13 1
   18    31    24 1
   19    32     1 1
   20    32    25 1
   21    33    21 1
   22    33    26 1
   23    34    22 1
   24    34    27 1
   25    35    23 1
   26    35    28 1
   27    36    12 1
   28    36    24 1
   29    37    13 1
   30    37    15 1
   31    38    31 1
   32    39    20 1
   33    39    32 1
   34    40     2 1
   35    40    33 1
   36    41     3 1
   37    41    34 1
   38    42     4 1
   39    42    35 1
   40    43    38 1
   41    44     5 1
   42    44    17 1
   43    44    39 1
   44    45    10 1
   45    45    18 1
   46    45    40 1
   47    46    19 1
   48    46    41 1
   49    47    14 1
   50    47    16 1
   51    47    42 1
   52    48    38 1
   53    49    48 1
   54    50    49 1
   55    51    50 1
   56    52    51 1
   57    53    51 1
   58    54    53 1
   59    55    54 1
   60    56    55 1
   61    57    56 1
   62    58    56 1
   63    59    58 1
   64    60    59 1
   65    61    60 1
   66    62    61 1
   67    63    61 1
   68    64    27 1
   69    64    46 1
   70    65     5 1
   71    65    10 1
   72    65    64 1
   73    65    14 1
   74    66    23 1
   75    67    23 1
   76    68    23 1
   77    69    22 1
   78    70    22 1
   79    71    22 1
   80    72    21 1
   81    73    21 1
   82    74    21 1
   83    75    20 1
   84    76    20 1
   85    77    20 1
   86    78    15 1
   87    79    15 1
   88    80    15 1
   89    81     8 1
   90    82     8 1
   91    83     8 1
   92    84     7 1
   93    85     7 1
   94    86     6 1
   95    87     6 1
   96    88     3 1
   97    89     3 1
   98    90     1 1
   99    91     1 1
  100    92    63 1
  101    93    63 1
  102    94    63 1
  103    95    62 1
  104    96    62 1
  105    97    62 1
  106    98    60 1
  107    99    60 1
  108   100    59 1
  109   101    59 1
  110   102    58 1
  111   103    58 1
  112   104    57 1
  113   105    57 1
  114   106    57 1
  115   107    55 1
  116   108    55 1
  117   109    54 1
  118   110    54 1
  119   111    53 1
  120   112    53 1
  121   113    19 1
  122   114    18 1
  123   115    17 1
  124   116     9 1
  125   117     2 1
  126   118    52 1
  127   119    52 1
  128   120    52 1
  129   121    51 1
  130   122    50 1
  131   123    50 1
  132   124    49 1
  133   125    49 1
  134   126    48 1
  135   127    48 1
  136   128    43 1
  137   129    43 1
  138   130    43 1
  139   131    39 1
  140   132    32 1
  141   133    31 1
  142   134    61 1
  143   135    56 1
  144   136    24 1
  145   137    24 1
  146   139   138 1
  147   140   139 1
  148   141   140 1
  149   142   140 1
  150   143   142 1
  151   144   138 1
  152   144   143 1
  153   145   144 1
  154   146   145 1
  155   147   146 1
  156   148   147 1
  157   149   148 1
  158   150   149 1
  159   151   150 1
  160   152   151 1
  161   153   152 1
  162   154   138 1
  163   155   138 1
  164   156   143 1
  165   157   147 1
  166   158   151 1
  167   160   159 1
  168   161   160 1
  169   162   161 1
  170   163   161 1
  171   164   163 1
  172   165   159 1
  173   165   164 1
  174   166   165 1
  175   167   166 1
  176   168   167 1
  177   169   168 1
  178   170   169 1
  179   171   170 1
  180   172   171 1
  181   173   172 1
  182   174   153 1
  183   174   173 1
  184   175   159 1
  185   176   159 1
  186   177   164 1
  187   178   168 1
  188   179   172 1
  189   180   179 1
  190   181   179 1
  191   182   179 1
  192   183   178 1
  193   184   178 1
  194   185   178 1
  195   186   177 1
  196   187   177 1
  197   188   177 1
  198   189   176 1
  199   190   176 1
  200   191   176 1
  201   192   175 1
  202   193   175 1
  203   194   175 1
  204   195   160 1
  205   196   160 1
  206   197   158 1
  207   198   158 1
  208   199   158 1
  209   200   157 1
  210   201   157 1
  211   202   157 1
  212   203   156 1
  213   204   156 1
  214   205   156 1
  215   206   155 1
  216   207   155 1
  217   208   155 1
  218   209   154 1
  219   210   154 1
  220   211   154 1
  221   212   141 1
  222   213   146 1
  223   214   145 1
  224   215   142 1
  225   216   142 1
  226   217   174 1
  227   218   173 1
  228   219   171 1
  229   220   170 1
  230   221   169 1
  231   222   140 1
  232   223   167 1
  233   224   166 1
  234   225   165 1
  235   226   163 1
  236   227   161 1
  237   228   139 1
  238   229   139 1
  239   230   153 1
  240   231   152 1
  241   232   150 1
  242   233   149 1
  243   234   148 1
  244   235   162 1
  245   65    153 1
  246   65    174 1
@<TRIPOS>SUBSTRUCTURE
      1 CLA               1 ****               0 ****  **** 
      2 LUT             138 ****               0 ****  **** 
