@<TRIPOS>MOLECULE
Cpptraj generated mol2 file.
  235   246     2     0     0
SMALL
USER_CHARGES


@<TRIPOS>ATOM
      1 CAA        79.5437   57.4171   34.8042 a2         1 CLA     -0.055900
      2 CAB        79.4323   61.6055   43.3853 c8         1 CLA     -0.148500
      3 CAC        72.5994   57.4198   42.9789 a2         1 CLA     -0.012600
      4 CAD        75.2218   54.8906   35.9032 ck         1 CLA      0.398800
      5 NA         78.6233   57.8272   37.9994 ns         1 CLA     -0.225500
      6 CBA        80.7837   57.1926   33.9073 a2         1 CLA     -0.135000
      7 CBB        80.6034   61.7073   44.0610 c0         1 CLA     -0.395200
      8 CBC        72.8339   55.8996   43.0451 a3         1 CLA     -0.037700
      9 CBD        76.7748   55.2222   35.6801 a1         1 CLA     -0.053900
     10 NB         78.4044   59.4857   40.4663 nm         1 CLA     -0.295700
     11 OBD        74.5490   54.1775   35.1633 o2         1 CLA     -0.494600
     12 CGA        81.1043   55.7238   33.4607 c4         1 CLA      0.827000
     13 CGD        77.6924   54.0812   35.8393 c4         1 CLA      0.655300
     14 ND         75.6318   57.1903   38.5576 nm         1 CLA     -0.291600
     15 CED        78.5002   52.3603   37.2229 a3         1 CLA      0.005400
     16 CHA        77.1314   56.3350   36.7844 cs         1 CLA     -0.123800
     17 CHB        80.3200   59.1884   39.0086 aa         1 CLA     -0.291900
     18 CHC        76.9702   59.9812   42.4412 aa         1 CLA     -0.090400
     19 CHD        73.6875   57.3007   40.0257 aa         1 CLA     -0.052000
     20 CMA        81.7720   56.6392   37.7521 a3         1 CLA     -0.230700
     21 CMB        81.6780   61.0816   40.9989 a3         1 CLA     -0.180800
     22 CMC        74.6197   59.4914   44.6198 a3         1 CLA     -0.134000
     23 CMD        72.3601   55.4376   37.8424 a3         1 CLA     -0.141100
     24 C1         81.9140   53.6420   34.1917 a2         1 CLA      0.023000
     25 C1A        78.4122   56.9330   37.0049 ac         1 CLA     -0.015100
     26 C1B        79.7073   59.7242   40.1851 cr         1 CLA      0.054700
     27 C1C        75.8158   59.2178   42.2373 cn         1 CLA     -0.005600
     28 C1D        74.3067   56.8181   38.9080 ap         1 CLA     -0.047300
     29 O1A        80.8949   55.2037   32.3530 o2         1 CLA     -0.610800
     30 O1D        78.5151   53.6865   34.9673 o2         1 CLA     -0.558200
     31 C2         82.4362   53.1495   35.5065 c8         1 CLA     -0.325100
     32 C2A        79.6918   56.7860   36.1747 a1         1 CLA      0.098600
     33 C2B        80.2731   60.6488   41.1453 cb         1 CLA      0.088500
     34 C2C        74.7178   58.9170   43.2354 cb         1 CLA      0.053700
     35 C2D        73.6951   55.9818   37.8971 cb         1 CLA      0.058900
     36 O2A        81.7164   55.0802   34.4519 o1         1 CLA     -0.437200
     37 O2D        77.5213   53.4178   37.0176 o1         1 CLA     -0.357600
     38 C3         83.7257   52.7828   35.7934 c5         1 CLA      0.031200
     39 C3A        80.6734   57.5609   37.0691 a1         1 CLA      0.166800
     40 C3B        79.3640   60.8922   42.1230 cb         1 CLA      0.035000
     41 C3C        73.7925   58.1541   42.4412 cb         1 CLA     -0.089900
     42 C3D        74.8262   55.7241   37.0595 cb         1 CLA     -0.035900
     43 C4         84.2118   51.4452   35.5648 a3         1 CLA     -0.053300
     44 C4A        79.8153   58.3354   38.0394 ac         1 CLA      0.001800
     45 C4B        78.1733   60.1324   41.6702 cn         1 CLA     -0.020900
     46 C4C        74.3114   58.0762   41.1038 cr         1 CLA     -0.044400
     47 C4D        75.9372   56.4372   37.4950 c6         1 CLA     -0.046000
     48 C5         84.7421   53.8590   36.1429 a2         1 CLA     -0.070400
     49 C6         85.0388   53.9526   37.6399 a2         1 CLA      0.043900
     50 C7         86.3114   54.8317   37.9775 a2         1 CLA     -0.150000
     51 C8         86.3596   55.2556   39.4964 a1         1 CLA      0.064200
     52 C9         85.2813   56.2722   39.9089 a3         1 CLA     -0.259300
     53 C10        87.8506   55.6271   39.8628 a2         1 CLA     -0.071900
     54 C11        88.2114   56.2066   41.2722 a2         1 CLA      0.014500
     55 C12        87.8255   55.3051   42.4303 a2         1 CLA     -0.112100
     56 C13        88.4299   55.6147   43.7606 a1         1 CLA      0.089200
     57 C14        88.4586   54.5645   44.8638 a3         1 CLA     -0.239100
     58 C15        87.8425   56.9353   44.3345 a2         1 CLA     -0.102200
     59 C16        86.2880   57.0045   44.6186 a2         1 CLA      0.023900
     60 C17        85.8264   58.3418   45.3142 a2         1 CLA     -0.105700
     61 C18        84.3105   58.5965   45.5021 a1         1 CLA      0.206800
     62 C19        83.8792   59.3960   46.6944 a3         1 CLA     -0.280100
     63 C20        83.7835   59.2027   44.1831 a3         1 CLA     -0.280100
     64 NC         75.5384   58.6019   41.0225 nx         1 CLA     -0.309200
     65 MG         77.0224   58.4728   39.3994 mg         1 CLA      0.895000
     66 HMD3       71.6511   56.2226   37.6096 dc         1 CLA      0.064300
     67 HMD2       72.4632   54.7065   37.0647 dc         1 CLA      0.064300
     68 HMD1       72.2573   54.9825   38.8406 dc         1 CLA      0.064300
     69 HMC3       74.4868   58.7117   45.3103 dc         1 CLA      0.052100
     70 HMC2       75.5195   60.0973   44.9529 dc         1 CLA      0.052100
     71 HMC1       73.8029   60.2220   44.6763 dc         1 CLA      0.052100
     72 HMB3       82.2834   60.2325   41.3404 dc         1 CLA      0.063600
     73 HMB2       81.8802   61.3235   39.9586 dc         1 CLA      0.063600
     74 HMB1       81.8425   61.9862   41.5608 dc         1 CLA      0.063600
     75 HMA3       81.3509   55.7052   38.1559 dc         1 CLA      0.058300
     76 HMA2       82.4995   56.4586   36.9518 dc         1 CLA      0.058300
     77 HMA1       82.2091   57.1377   38.6385 dc         1 CLA      0.058300
     78 HED3       78.3983   51.9516   38.3036 dc         1 CLA      0.079300
     79 HED2       78.2672   51.4378   36.6197 dc         1 CLA      0.079300
     80 HED1       79.6145   52.7095   37.0897 dc         1 CLA      0.079300
     81 HBC3       73.2098   55.5092   42.1596 dc         1 CLA      0.016300
     82 HBC2       73.5935   55.6364   43.7591 dc         1 CLA      0.016300
     83 HBC1       71.9413   55.3848   43.2356 dc         1 CLA      0.016300
     84 HBB2       80.6529   62.3273   44.9507 da         1 CLA      0.183000
     85 HBB1       81.5537   61.1950   43.7882 da         1 CLA      0.183000
     86 HBA2       80.5040   57.7151   33.0128 dc         1 CLA      0.029400
     87 HBA1       81.6012   57.6726   34.3555 dc         1 CLA      0.029400
     88 HAC2       72.5042   57.6606   44.0657 dc         1 CLA      0.029300
     89 HAC1       71.7487   57.6676   42.3845 dc         1 CLA      0.029300
     90 HAA2       78.7092   57.0956   34.2455 dc         1 CLA      0.028700
     91 HAA1       79.4761   58.4685   34.9558 dc         1 CLA      0.028700
     92 H203       84.2339   60.1601   43.8197 dc         1 CLA      0.065600
     93 H202       83.9929   58.4553   43.4315 dc         1 CLA      0.065600
     94 H201       82.7034   59.2604   44.1905 dc         1 CLA      0.065600
     95 H193       84.4520   60.3153   46.9032 dc         1 CLA      0.065600
     96 H192       82.8408   59.6224   46.5001 dc         1 CLA      0.065600
     97 H191       84.1166   58.9156   47.6575 dc         1 CLA      0.065600
     98 H172       86.1366   58.3526   46.3503 dc         1 CLA      0.027600
     99 H171       86.3877   59.1938   44.7813 dc         1 CLA      0.027600
    100 H162       85.8085   57.0779   43.6874 dc         1 CLA      0.002900
    101 H161       85.9208   56.1581   45.2099 dc         1 CLA      0.002900
    102 H152       88.4111   57.2239   45.2275 dc         1 CLA      0.029100
    103 H151       88.0770   57.8136   43.7228 dc         1 CLA      0.029100
    104 H143       89.0817   53.6879   44.7446 dc         1 CLA      0.063600
    105 H142       88.9443   55.0391   45.6905 dc         1 CLA      0.063600
    106 H141       87.4277   54.2682   45.1536 dc         1 CLA      0.063600
    107 H122       86.7464   55.3809   42.4792 dc         1 CLA      0.032500
    108 H121       88.0244   54.2371   42.1769 dc         1 CLA      0.032500
    109 H112       89.2911   56.4521   41.2857 dc         1 CLA      0.006600
    110 H111       87.6268   57.0976   41.4599 dc         1 CLA      0.006600
    111 H102       88.3883   54.6791   39.7123 dc         1 CLA      0.024100
    112 H101       88.3251   56.3541   39.1860 dc         1 CLA      0.024100
    113 HHD        72.6987   56.9598   40.1950 da         1 CLA      0.174300
    114 HHC        76.9393   60.5170   43.3819 da         1 CLA      0.136800
    115 HHB        81.3878   59.3701   38.7975 da         1 CLA      0.138300
    116 HBD        76.8707   55.5894   34.6124 dc         1 CLA      0.107700
    117 HAB        78.5434   62.0462   43.9170 da         1 CLA      0.155200
    118 H93        84.3180   55.6983   39.8110 dc         1 CLA      0.069500
    119 H92        85.3928   56.7207   40.9424 dc         1 CLA      0.069500
    120 H91        85.3106   57.1430   39.2675 dc         1 CLA      0.069500
    121 H8         86.2427   54.4115   40.1343 dc         1 CLA      0.029300
    122 H72        87.2118   54.4105   37.6102 dc         1 CLA      0.044400
    123 H71        86.0977   55.7794   37.4320 dc         1 CLA      0.044400
    124 H62        84.0675   54.3568   37.9887 dc         1 CLA      0.015600
    125 H61        85.2003   52.9770   38.1116 dc         1 CLA      0.015600
    126 H52        85.6484   53.6516   35.5366 dc         1 CLA      0.033200
    127 H51        84.3340   54.8509   35.9114 dc         1 CLA      0.033200
    128 H43        83.3612   50.8109   35.3857 dc         1 CLA      0.037000
    129 H42        84.6478   51.4043   34.5060 dc         1 CLA      0.037000
    130 H41        84.7379   51.0589   36.4046 dc         1 CLA      0.037000
    131 H3A        81.3056   58.2747   36.5194 dc         1 CLA      0.041100
    132 H2A        79.8741   55.6939   36.1098 dc         1 CLA      0.083100
    133 H2         81.8245   53.2628   36.3909 da         1 CLA      0.180900
    134 H18        83.8187   57.6778   45.6009 dc         1 CLA     -0.003900
    135 H13        89.5314   55.7474   43.5913 dc         1 CLA      0.019700
    136 H12        80.9168   53.1652   33.9804 dc         1 CLA      0.120400
    137 H11        82.5397   53.5687   33.3439 dc         1 CLA      0.120400
    138 C1         69.5569   61.1992   50.0367 Z1         2 LUT      0.509236
    139 C2         68.2676   61.2010   50.7468 Z2         2 LUT     -0.434695
    140 C3         67.4854   62.4779   51.0476 Z3         2 LUT      0.437453
    141 O3         67.8525   62.9602   52.4001 S1         2 LUT     -0.547129
    142 C4         67.7414   63.5087   50.0696 Z4         2 LUT     -0.468603
    143 C5         68.5330   63.1548   48.7675 Z5         2 LUT      0.279246
    144 C6         69.4165   62.1281   48.8259 Z6         2 LUT     -0.305473
    145 C7         69.9734   61.5384   47.5838 Z7         2 LUT      0.069402
    146 C8         70.9172   62.1259   46.7995 Z8         2 LUT     -0.191631
    147 C9         71.4322   61.6966   45.5666 Z9         2 LUT      0.196698
    148 C10        72.3775   62.5364   44.9923 Y1         2 LUT     -0.208611
    149 C11        72.9769   62.3965   43.7228 Y2         2 LUT      0.030784
    150 C12        74.1394   63.0168   43.3800 Y3         2 LUT     -0.220316
    151 C13        74.9366   62.9457   42.1654 Y4         2 LUT      0.215937
    152 C14        76.0665   63.7028   42.1063 Y5         2 LUT     -0.185793
    153 C15        77.0795   63.7543   41.2089 Y6         2 LUT     -0.057835
    154 C16        69.9331   59.7449   49.6899 Y7         2 LUT     -0.405615
    155 C17        70.6594   61.7400   50.8882 Y7         2 LUT     -0.405615
    156 C18        68.0406   63.8873   47.5463 Y9         2 LUT     -0.369639
    157 C19        70.9252   60.4267   44.9045 W1         2 LUT     -0.333362
    158 C20        74.5467   61.9016   41.0303 W2         2 LUT     -0.323439
    159 C21        89.1062   63.9725   35.8543 Z1         2 LUT      0.406104
    160 C22        89.6958   63.3441   34.4965 Z2         2 LUT     -0.404965
    161 C23        89.7696   64.3701   33.3253 Z3         2 LUT      0.391255
    162 O23        90.3815   63.8223   32.1694 S1         2 LUT     -0.528210
    163 C24        88.4056   65.1243   33.1681 W6         2 LUT     -0.258361
    164 C25        87.4458   65.2147   34.1296 Z5         2 LUT      0.133546
    165 C26        87.6245   64.4296   35.4544 W8         2 LUT     -0.147008
    166 C27        86.9243   65.0943   36.6063 Z7         2 LUT      0.023843
    167 C28        85.7018   64.7617   37.1311 Z8         2 LUT     -0.216987
    168 C29        85.0817   65.2197   38.3262 Z9         2 LUT      0.206524
    169 C30        83.8185   64.7656   38.6186 Y1         2 LUT     -0.215556
    170 C31        82.9319   64.8318   39.7835 Y2         2 LUT      0.025142
    171 C32        81.5797   64.5286   39.7531 Y3         2 LUT     -0.212209
    172 C33        80.6227   64.6357   40.8368 Y4         2 LUT      0.240937
    173 C34        79.3641   64.1695   40.5981 Y5         2 LUT     -0.218862
    174 C35        78.3099   64.2809   41.5126 Y6         2 LUT     -0.023547
    175 C36        90.0279   65.0232   36.4456 Y7         2 LUT     -0.393485
    176 C37        89.0615   62.6743   36.7746 Y7         2 LUT     -0.393485
    177 C38        86.0866   65.8187   33.8478 Y9         2 LUT     -0.387526
    178 C39        85.6696   66.2258   39.1743 W1         2 LUT     -0.322618
    179 C40        81.0724   65.4707   42.1048 W2         2 LUT     -0.358472
    180 H403       80.5377   65.1472   43.0157 R7         2 LUT      0.097720
    181 H402       82.1117   65.5226   42.3276 R7         2 LUT      0.097720
    182 H401       80.7763   66.4590   42.0808 R7         2 LUT      0.097720
    183 H393       85.0612   67.0565   39.3145 R4         2 LUT      0.082505
    184 H392       85.7565   65.9496   40.2518 R4         2 LUT      0.082505
    185 H391       86.6529   66.5467   38.8725 R4         2 LUT      0.082505
    186 H383       85.5017   65.0160   33.3267 R1         2 LUT      0.104030
    187 H382       85.5674   66.2060   34.6708 R1         2 LUT      0.104030
    188 H381       86.2557   66.5633   33.1424 R1         2 LUT      0.104030
    189 H373       90.0320   62.2441   36.9953 T4         2 LUT      0.089537
    190 H372       88.6757   62.8828   37.7546 T4         2 LUT      0.089537
    191 H371       88.5570   61.7652   36.3015 T4         2 LUT      0.089537
    192 H363       89.8914   65.3714   37.4456 T4         2 LUT      0.089537
    193 H362       91.0205   64.6423   36.4090 T4         2 LUT      0.089537
    194 H361       89.9364   65.8828   35.7448 T4         2 LUT      0.089537
    195 H222       90.6782   62.8843   34.6894 U2         2 LUT      0.127376
    196 H221       89.0547   62.4867   34.1794 U2         2 LUT      0.127376
    197 H203       75.4083   61.3477   40.6916 R7         2 LUT      0.087068
    198 H202       73.7071   61.2494   41.1707 R7         2 LUT      0.087068
    199 H201       74.3589   62.4526   40.1618 R7         2 LUT      0.087068
    200 H193       69.8815   60.4462   44.6448 R4         2 LUT      0.089716
    201 H192       71.1759   60.2100   43.8485 R4         2 LUT      0.089716
    202 H191       71.1202   59.5014   45.4202 R4         2 LUT      0.089716
    203 H183       68.4724   64.8633   47.4783 R1         2 LUT      0.094572
    204 H182       68.3238   63.3852   46.6243 R1         2 LUT      0.094572
    205 H181       66.9683   63.8298   47.5099 R1         2 LUT      0.094572
    206 H173       71.5719   61.5636   50.3865 T4         2 LUT      0.093752
    207 H172       70.4457   62.7714   51.3318 T4         2 LUT      0.093752
    208 H171       70.7055   61.0793   51.7724 T4         2 LUT      0.093752
    209 H163       70.8754   59.6915   49.2237 T4         2 LUT      0.093752
    210 H162       70.1582   59.1519   50.6138 T4         2 LUT      0.093752
    211 H161       69.2534   59.0210   49.1260 T4         2 LUT      0.093752
    212 HO3        67.7135   62.3845   53.1377 Q1         2 LUT      0.300121
    213 H8         71.2926   63.0591   47.2146 U7         2 LUT      0.080784
    214 H7         69.4370   60.6813   47.2434 U6         2 LUT      0.042190
    215 H42        66.7877   63.9028   49.7854 U5         2 LUT      0.145166
    216 H41        68.2181   64.3585   50.5808 U5         2 LUT      0.145166
    217 H35        78.4134   64.6770   42.5120 T3         2 LUT      0.077919
    218 H34        79.0709   63.8279   39.5618 T2         2 LUT      0.073626
    219 H32        81.1929   63.9794   38.8956 T1         2 LUT      0.092510
    220 H31        83.3265   65.3493   40.6000 U9         2 LUT      0.070048
    221 H30        83.4143   64.0847   37.8799 U8         2 LUT      0.085442
    222 H3         66.3777   62.2931   51.2747 U3         2 LUT     -0.031596
    223 H28        85.2293   63.8960   36.6357 U7         2 LUT      0.084728
    224 H27        87.5104   65.8988   37.0544 U6         2 LUT      0.087291
    225 H26        86.9739   63.5546   35.2819 Q6         2 LUT      0.075325
    226 H24        88.2252   65.6718   32.2278 Q5         2 LUT      0.094482
    227 H23        90.5488   65.0124   33.7785 U3         2 LUT     -0.024869
    228 H22        67.6700   60.5661   50.0907 U2         2 LUT      0.127376
    229 H21        68.3847   60.6040   51.6519 U2         2 LUT      0.127376
    230 H15        76.9916   63.3687   40.2666 T3         2 LUT      0.093200
    231 H14        76.2133   64.2997   42.9464 T2         2 LUT      0.068865
    232 H12        74.6489   63.7134   44.1022 T1         2 LUT      0.095507
    233 H11        72.5997   61.5972   43.0230 U9         2 LUT      0.068930
    234 H10        72.7900   63.3737   45.5228 U8         2 LUT      0.083911
    235 H1         89.8171   63.2337   31.6763 Q1         2 LUT      0.297311
@<TRIPOS>BOND
    1     6     1 1
    2     7     2 1
    3     8     3 1
    4     9     4 1
    5    11     4 1
    6    12     6 1
    7    13     9 1
    8    16     9 1
    9    25     5 1
   10    25    16 1
   11    26    10 1
   12    26    17 1
   13    27    18 1
   14    28    14 1
   15    28    19 1
   16    29    12 1
   17    30    13 1
   18    31    24 1
   19    32     1 1
   20    32    25 1
   21    33    21 1
   22    33    26 1
   23    34    22 1
   24    34    27 1
   25    35    23 1
   26    35    28 1
   27    36    12 1
   28    36    24 1
   29    37    13 1
   30    37    15 1
   31    38    31 1
   32    39    20 1
   33    39    32 1
   34    40     2 1
   35    40    33 1
   36    41     3 1
   37    41    34 1
   38    42     4 1
   39    42    35 1
   40    43    38 1
   41    44     5 1
   42    44    17 1
   43    44    39 1
   44    45    10 1
   45    45    18 1
   46    45    40 1
   47    46    19 1
   48    46    41 1
   49    47    14 1
   50    47    16 1
   51    47    42 1
   52    48    38 1
   53    49    48 1
   54    50    49 1
   55    51    50 1
   56    52    51 1
   57    53    51 1
   58    54    53 1
   59    55    54 1
   60    56    55 1
   61    57    56 1
   62    58    56 1
   63    59    58 1
   64    60    59 1
   65    61    60 1
   66    62    61 1
   67    63    61 1
   68    64    27 1
   69    64    46 1
   70    65     5 1
   71    65    10 1
   72    65    64 1
   73    65    14 1
   74    66    23 1
   75    67    23 1
   76    68    23 1
   77    69    22 1
   78    70    22 1
   79    71    22 1
   80    72    21 1
   81    73    21 1
   82    74    21 1
   83    75    20 1
   84    76    20 1
   85    77    20 1
   86    78    15 1
   87    79    15 1
   88    80    15 1
   89    81     8 1
   90    82     8 1
   91    83     8 1
   92    84     7 1
   93    85     7 1
   94    86     6 1
   95    87     6 1
   96    88     3 1
   97    89     3 1
   98    90     1 1
   99    91     1 1
  100    92    63 1
  101    93    63 1
  102    94    63 1
  103    95    62 1
  104    96    62 1
  105    97    62 1
  106    98    60 1
  107    99    60 1
  108   100    59 1
  109   101    59 1
  110   102    58 1
  111   103    58 1
  112   104    57 1
  113   105    57 1
  114   106    57 1
  115   107    55 1
  116   108    55 1
  117   109    54 1
  118   110    54 1
  119   111    53 1
  120   112    53 1
  121   113    19 1
  122   114    18 1
  123   115    17 1
  124   116     9 1
  125   117     2 1
  126   118    52 1
  127   119    52 1
  128   120    52 1
  129   121    51 1
  130   122    50 1
  131   123    50 1
  132   124    49 1
  133   125    49 1
  134   126    48 1
  135   127    48 1
  136   128    43 1
  137   129    43 1
  138   130    43 1
  139   131    39 1
  140   132    32 1
  141   133    31 1
  142   134    61 1
  143   135    56 1
  144   136    24 1
  145   137    24 1
  146   139   138 1
  147   140   139 1
  148   141   140 1
  149   142   140 1
  150   143   142 1
  151   144   138 1
  152   144   143 1
  153   145   144 1
  154   146   145 1
  155   147   146 1
  156   148   147 1
  157   149   148 1
  158   150   149 1
  159   151   150 1
  160   152   151 1
  161   153   152 1
  162   154   138 1
  163   155   138 1
  164   156   143 1
  165   157   147 1
  166   158   151 1
  167   160   159 1
  168   161   160 1
  169   162   161 1
  170   163   161 1
  171   164   163 1
  172   165   159 1
  173   165   164 1
  174   166   165 1
  175   167   166 1
  176   168   167 1
  177   169   168 1
  178   170   169 1
  179   171   170 1
  180   172   171 1
  181   173   172 1
  182   174   153 1
  183   174   173 1
  184   175   159 1
  185   176   159 1
  186   177   164 1
  187   178   168 1
  188   179   172 1
  189   180   179 1
  190   181   179 1
  191   182   179 1
  192   183   178 1
  193   184   178 1
  194   185   178 1
  195   186   177 1
  196   187   177 1
  197   188   177 1
  198   189   176 1
  199   190   176 1
  200   191   176 1
  201   192   175 1
  202   193   175 1
  203   194   175 1
  204   195   160 1
  205   196   160 1
  206   197   158 1
  207   198   158 1
  208   199   158 1
  209   200   157 1
  210   201   157 1
  211   202   157 1
  212   203   156 1
  213   204   156 1
  214   205   156 1
  215   206   155 1
  216   207   155 1
  217   208   155 1
  218   209   154 1
  219   210   154 1
  220   211   154 1
  221   212   141 1
  222   213   146 1
  223   214   145 1
  224   215   142 1
  225   216   142 1
  226   217   174 1
  227   218   173 1
  228   219   171 1
  229   220   170 1
  230   221   169 1
  231   222   140 1
  232   223   167 1
  233   224   166 1
  234   225   165 1
  235   226   163 1
  236   227   161 1
  237   228   139 1
  238   229   139 1
  239   230   153 1
  240   231   152 1
  241   232   150 1
  242   233   149 1
  243   234   148 1
  244   235   162 1
  245   65    153 1
  246   65    174 1
@<TRIPOS>SUBSTRUCTURE
      1 CLA               1 ****               0 ****  **** 
      2 LUT             138 ****               0 ****  **** 
