@<TRIPOS>MOLECULE
Cpptraj generated mol2 file.
  235   246     2     0     0
SMALL
USER_CHARGES


@<TRIPOS>ATOM
      1 CAA        77.8002   57.0669   34.4084 a2         1 CLA     -0.055900
      2 CAB        77.9651   61.4319   43.3204 c8         1 CLA     -0.148500
      3 CAC        70.7619   57.7946   43.1697 a2         1 CLA     -0.012600
      4 CAD        73.3203   54.8210   35.9044 ck         1 CLA      0.398800
      5 NA         76.7458   57.8070   37.8501 ns         1 CLA     -0.225500
      6 CBA        79.1279   56.7406   33.6203 a2         1 CLA     -0.135000
      7 CBB        79.1164   61.5007   44.0506 c0         1 CLA     -0.395200
      8 CBC        70.4672   56.3005   43.1809 a3         1 CLA     -0.037700
      9 CBD        74.8748   55.1588   35.6139 a1         1 CLA     -0.053900
     10 NB         76.8777   59.3499   40.4249 nm         1 CLA     -0.295700
     11 OBD        72.5889   54.1474   35.2104 o2         1 CLA     -0.494600
     12 CGA        79.5007   55.2605   33.4291 c4         1 CLA      0.827000
     13 CGD        75.7849   53.9414   35.5342 c4         1 CLA      0.655300
     14 ND         73.9384   57.0267   38.5538 nm         1 CLA     -0.291600
     15 CED        76.4268   51.7203   36.4212 a3         1 CLA      0.005400
     16 CHA        75.2892   56.1601   36.6773 cs         1 CLA     -0.123800
     17 CHB        78.6602   59.1908   38.7883 aa         1 CLA     -0.291900
     18 CHC        75.6167   59.6558   42.5098 aa         1 CLA     -0.090400
     19 CHD        72.0839   57.2735   40.1833 aa         1 CLA     -0.052000
     20 CMA        80.1168   56.8214   37.1562 a3         1 CLA     -0.230700
     21 CMB        80.1510   61.2303   40.7592 a3         1 CLA     -0.180800
     22 CMC        73.2838   59.4558   44.7162 a3         1 CLA     -0.134000
     23 CMD        70.6030   55.3637   38.1181 a3         1 CLA     -0.141100
     24 C1         80.2770   53.2406   34.5509 a2         1 CLA      0.023000
     25 C1A        76.5026   56.9221   36.8212 ac         1 CLA     -0.015100
     26 C1B        78.1269   59.7205   39.9286 cr         1 CLA      0.054700
     27 C1C        74.3663   58.9688   42.2921 cn         1 CLA     -0.005600
     28 C1D        72.6371   56.7509   38.9833 ap         1 CLA     -0.047300
     29 O1A        79.3768   54.6005   32.3922 o2         1 CLA     -0.610800
     30 O1D        76.5381   53.7887   34.6060 o2         1 CLA     -0.558200
     31 C2         80.5148   52.8032   35.9992 c8         1 CLA     -0.325100
     32 C2A        77.7999   56.7229   35.9959 a1         1 CLA      0.098600
     33 C2B        78.7978   60.6165   40.9223 cb         1 CLA      0.088500
     34 C2C        73.2579   58.8543   43.3042 cb         1 CLA      0.053700
     35 C2D        72.0008   55.8704   38.0105 cb         1 CLA      0.058900
     36 O2A        80.1247   54.6515   34.5335 o1         1 CLA     -0.437200
     37 O2D        75.7417   53.0119   36.6130 o1         1 CLA     -0.357600
     38 C3         81.4033   51.8742   36.3849 c5         1 CLA      0.031200
     39 C3A        78.8183   57.6047   36.7663 a1         1 CLA      0.166800
     40 C3B        77.8840   60.7014   42.0229 cb         1 CLA      0.035000
     41 C3C        72.1802   58.2231   42.5904 cb         1 CLA     -0.089900
     42 C3D        72.9814   55.5422   37.0867 cb         1 CLA     -0.035900
     43 C4         80.9656   50.4561   36.4736 a3         1 CLA     -0.053300
     44 C4A        78.0287   58.3091   37.8315 ac         1 CLA      0.001800
     45 C4B        76.7454   59.8522   41.6449 cn         1 CLA     -0.020900
     46 C4C        72.7642   57.9538   41.2392 cr         1 CLA     -0.044400
     47 C4D        74.1354   56.2692   37.4705 c6         1 CLA     -0.046000
     48 C5         82.9215   52.1601   36.5750 a2         1 CLA     -0.070400
     49 C6         83.2375   53.0693   37.8621 a2         1 CLA      0.043900
     50 C7         84.7104   53.3980   38.0436 a2         1 CLA     -0.150000
     51 C8         85.1834   54.8171   38.6434 a1         1 CLA      0.064200
     52 C9         86.6664   55.0851   38.4280 a3         1 CLA     -0.259300
     53 C10        84.8804   54.9387   40.2205 a2         1 CLA     -0.071900
     54 C11        83.4585   55.0407   40.7379 a2         1 CLA      0.014500
     55 C12        83.2739   55.9035   42.0800 a2         1 CLA     -0.112100
     56 C13        81.8516   56.4005   42.3542 a1         1 CLA      0.089200
     57 C14        81.1218   57.2061   41.1897 a3         1 CLA     -0.239100
     58 C15        81.6228   57.1488   43.7150 a2         1 CLA     -0.102200
     59 C16        82.2385   58.4858   43.9121 a2         1 CLA      0.023900
     60 C17        81.8170   59.0749   45.2835 a2         1 CLA     -0.105700
     61 C18        82.5877   60.3072   45.8158 a1         1 CLA      0.206800
     62 C19        81.9245   60.7880   47.1402 a3         1 CLA     -0.280100
     63 C20        84.0958   60.1460   46.0538 a3         1 CLA     -0.280100
     64 NC         74.0683   58.3955   41.1625 nx         1 CLA     -0.309200
     65 MG         75.4118   58.2399   39.4557 mg         1 CLA      0.895000
     66 HMD3       70.3558   54.6029   37.3758 dc         1 CLA      0.064300
     67 HMD2       70.5942   55.0036   39.1161 dc         1 CLA      0.064300
     68 HMD1       70.1113   56.2397   37.9582 dc         1 CLA      0.064300
     69 HMC3       73.3795   60.5012   44.6484 dc         1 CLA      0.052100
     70 HMC2       72.4062   59.3418   45.2786 dc         1 CLA      0.052100
     71 HMC1       74.1637   59.0867   45.2370 dc         1 CLA      0.052100
     72 HMB3       80.2837   61.4405   39.6407 dc         1 CLA      0.063600
     73 HMB2       80.1668   62.1814   41.3137 dc         1 CLA      0.063600
     74 HMB1       80.8156   60.5301   41.2002 dc         1 CLA      0.063600
     75 HMA3       80.8027   57.5771   37.7264 dc         1 CLA      0.058300
     76 HMA2       79.8844   55.9034   37.7319 dc         1 CLA      0.058300
     77 HMA1       80.4867   56.5288   36.1794 dc         1 CLA      0.058300
     78 HED3       75.9134   51.3297   35.4985 dc         1 CLA      0.079300
     79 HED2       77.4595   51.8998   36.1518 dc         1 CLA      0.079300
     80 HED1       76.2464   51.1583   37.3471 dc         1 CLA      0.079300
     81 HBC3       71.1481   55.7117   43.8204 dc         1 CLA      0.016300
     82 HBC2       69.4178   56.1732   43.5085 dc         1 CLA      0.016300
     83 HBC1       70.5988   55.7762   42.2288 dc         1 CLA      0.016300
     84 HBB2       79.1329   61.9518   45.0817 da         1 CLA      0.183000
     85 HBB1       80.0856   61.1435   43.6808 da         1 CLA      0.183000
     86 HBA2       79.0541   57.3143   32.6933 dc         1 CLA      0.029400
     87 HBA1       80.0084   57.2744   34.0715 dc         1 CLA      0.029400
     88 HAC2       70.6700   58.1993   44.1698 dc         1 CLA      0.029300
     89 HAC1       70.0205   58.2976   42.5174 dc         1 CLA      0.029300
     90 HAA2       77.0266   56.4245   33.9377 dc         1 CLA      0.028700
     91 HAA1       77.4827   58.1226   34.2923 dc         1 CLA      0.028700
     92 H203       84.5488   60.9805   46.6055 dc         1 CLA      0.065600
     93 H202       84.3006   59.3101   46.7659 dc         1 CLA      0.065600
     94 H201       84.5967   59.8302   45.1461 dc         1 CLA      0.065600
     95 H193       82.5649   61.4952   47.7783 dc         1 CLA      0.065600
     96 H192       80.9391   61.2185   46.9961 dc         1 CLA      0.065600
     97 H191       81.6874   59.8535   47.7081 dc         1 CLA      0.065600
     98 H172       80.8007   59.2747   45.2520 dc         1 CLA      0.027600
     99 H171       81.9309   58.2643   45.9706 dc         1 CLA      0.027600
    100 H162       83.3075   58.2832   43.7189 dc         1 CLA      0.002900
    101 H161       81.8889   59.2250   43.1597 dc         1 CLA      0.002900
    102 H152       80.5621   57.1508   44.0185 dc         1 CLA      0.029100
    103 H151       82.2382   56.5642   44.3771 dc         1 CLA      0.029100
    104 H143       80.7354   56.6114   40.4341 dc         1 CLA      0.063600
    105 H142       80.2090   57.6411   41.5359 dc         1 CLA      0.063600
    106 H141       81.7453   57.9566   40.6833 dc         1 CLA      0.063600
    107 H122       83.7788   55.4141   42.9775 dc         1 CLA      0.032500
    108 H121       83.8144   56.9130   41.9340 dc         1 CLA      0.032500
    109 H112       82.9959   55.5791   39.9311 dc         1 CLA      0.006600
    110 H111       83.0749   54.0292   40.8645 dc         1 CLA      0.006600
    111 H102       85.3557   54.1337   40.7333 dc         1 CLA      0.024100
    112 H101       85.3210   55.9035   40.5293 dc         1 CLA      0.024100
    113 HHD        71.0334   56.9682   40.4030 da         1 CLA      0.174300
    114 HHC        75.6479   60.0671   43.5650 da         1 CLA      0.136800
    115 HHB        79.6485   59.5266   38.4891 da         1 CLA      0.138300
    116 HBD        74.9600   55.5699   34.5934 dc         1 CLA      0.107700
    117 HAB        77.0278   61.7014   43.8247 da         1 CLA      0.155200
    118 H93        86.9289   54.8851   37.3554 dc         1 CLA      0.069500
    119 H92        86.7303   56.1471   38.6951 dc         1 CLA      0.069500
    120 H91        87.1104   54.4350   39.1229 dc         1 CLA      0.069500
    121 H8         84.6932   55.4063   37.8701 dc         1 CLA      0.029300
    122 H72        84.9537   52.7204   38.7855 dc         1 CLA      0.044400
    123 H71        85.3616   53.1487   37.1642 dc         1 CLA      0.044400
    124 H62        82.6792   54.0308   37.8160 dc         1 CLA      0.015600
    125 H61        82.7204   52.6135   38.7155 dc         1 CLA      0.015600
    126 H52        83.4760   51.2146   36.6878 dc         1 CLA      0.033200
    127 H51        83.3406   52.6997   35.7237 dc         1 CLA      0.033200
    128 H43        81.5011   49.7952   35.7508 dc         1 CLA      0.037000
    129 H42        81.0438   50.1568   37.4486 dc         1 CLA      0.037000
    130 H41        79.8837   50.4748   36.3160 dc         1 CLA      0.037000
    131 H3A        79.0793   58.3620   35.9721 dc         1 CLA      0.041100
    132 H2A        77.9775   55.7344   36.1794 dc         1 CLA      0.083100
    133 H2         80.0214   53.3973   36.7973 da         1 CLA      0.180900
    134 H18        82.4320   60.9885   45.0655 dc         1 CLA     -0.003900
    135 H13        81.3678   55.4662   42.4508 dc         1 CLA      0.019700
    136 H12        79.4302   52.6410   34.1867 dc         1 CLA      0.120400
    137 H11        81.1787   52.8871   33.9203 dc         1 CLA      0.120400
    138 C1         67.5148   60.9112   49.8792 Z1         2 LUT      0.509236
    139 C2         66.1220   60.7605   50.4681 Z2         2 LUT     -0.434695
    140 C3         65.1858   61.9859   50.7856 Z3         2 LUT      0.437453
    141 O3         65.3327   62.4524   52.0617 S1         2 LUT     -0.547129
    142 C4         65.5523   63.1471   49.8624 Z4         2 LUT     -0.468603
    143 C5         66.2340   62.8154   48.6176 Z5         2 LUT      0.279246
    144 C6         67.2211   61.8545   48.6210 Z6         2 LUT     -0.305473
    145 C7         67.5884   61.3914   47.2337 Z7         2 LUT      0.069402
    146 C8         68.6046   61.9905   46.5722 Z8         2 LUT     -0.191631
    147 C9         69.2609   61.5793   45.3530 Z9         2 LUT      0.196698
    148 C10        70.4431   62.1702   44.9583 Y1         2 LUT     -0.208611
    149 C11        71.2518   61.8857   43.8116 Y2         2 LUT      0.030784
    150 C12        72.3320   62.7215   43.4899 Y3         2 LUT     -0.220316
    151 C13        73.2493   62.5151   42.3801 Y4         2 LUT      0.215937
    152 C14        74.4575   63.1620   42.3509 Y5         2 LUT     -0.185793
    153 C15        75.5048   63.1459   41.3785 Y6         2 LUT     -0.057835
    154 C16        68.1498   59.5296   49.4339 Y7         2 LUT     -0.405615
    155 C17        68.3220   61.5095   51.0202 Y7         2 LUT     -0.405615
    156 C18        65.6621   63.4938   47.3157 Y9         2 LUT     -0.369639
    157 C19        68.5987   60.4786   44.6004 W1         2 LUT     -0.333362
    158 C20        72.7901   61.6126   41.2469 W2         2 LUT     -0.323439
    159 C21        86.8633   64.4816   35.2489 Z1         2 LUT      0.406104
    160 C22        87.6098   63.9085   34.0371 Z2         2 LUT     -0.404965
    161 C23        87.9072   64.9039   32.8901 Z3         2 LUT      0.391255
    162 O23        88.7470   64.3707   31.8585 S1         2 LUT     -0.528210
    163 C24        86.7091   65.8180   32.5931 W6         2 LUT     -0.258361
    164 C25        85.6854   66.0036   33.4410 Z5         2 LUT      0.133546
    165 C26        85.4828   65.1320   34.6795 W8         2 LUT     -0.147008
    166 C27        84.6447   65.7478   35.7332 Z7         2 LUT      0.023843
    167 C28        83.5807   65.1669   36.3173 Z8         2 LUT     -0.216987
    168 C29        82.9912   65.6104   37.5501 Z9         2 LUT      0.206524
    169 C30        81.8284   65.0077   37.8877 Y1         2 LUT     -0.215556
    170 C31        80.9916   65.2168   39.0071 Y2         2 LUT      0.025142
    171 C32        79.7772   64.5419   39.2995 Y3         2 LUT     -0.212209
    172 C33        78.8302   64.6995   40.4414 Y4         2 LUT      0.240937
    173 C34        77.6891   63.9441   40.6845 Y5         2 LUT     -0.218862
    174 C35        76.6049   63.9055   41.5608 Y6         2 LUT     -0.023547
    175 C36        87.7266   65.6748   35.7938 Y7         2 LUT     -0.393485
    176 C37        86.6822   63.4053   36.2842 Y7         2 LUT     -0.393485
    177 C38        84.5000   66.7651   32.8929 Y9         2 LUT     -0.387526
    178 C39        83.7444   66.6458   38.3209 W1         2 LUT     -0.322618
    179 C40        79.2156   65.6406   41.5225 W2         2 LUT     -0.358472
    180 H403       79.0869   65.1911   42.5209 R7         2 LUT      0.097720
    181 H402       80.3090   65.9721   41.4437 R7         2 LUT      0.097720
    182 H401       78.6808   66.5705   41.3306 R7         2 LUT      0.097720
    183 H393       84.7680   66.3418   38.6736 R4         2 LUT      0.082505
    184 H392       83.9505   67.5362   37.7609 R4         2 LUT      0.082505
    185 H391       83.1206   67.0369   39.1028 R4         2 LUT      0.082505
    186 H383       84.2250   67.5460   33.6382 R1         2 LUT      0.104030
    187 H382       84.7925   67.2688   31.9638 R1         2 LUT      0.104030
    188 H381       83.7479   66.1399   32.6667 R1         2 LUT      0.104030
    189 H373       86.1781   62.5268   35.9065 T4         2 LUT      0.089537
    190 H372       87.5716   63.0989   36.8391 T4         2 LUT      0.089537
    191 H371       86.0989   63.9178   37.0107 T4         2 LUT      0.089537
    192 H363       87.1501   66.1757   36.6242 T4         2 LUT      0.089537
    193 H362       88.6270   65.2113   36.2312 T4         2 LUT      0.089537
    194 H361       88.0371   66.3537   34.9936 T4         2 LUT      0.089537
    195 H222       88.5805   63.6240   34.2462 U2         2 LUT      0.127376
    196 H221       87.0844   63.0343   33.7090 U2         2 LUT      0.127376
    197 H203       73.6474   61.1948   40.6636 R7         2 LUT      0.087068
    198 H202       72.3354   60.7673   41.6408 R7         2 LUT      0.087068
    199 H201       72.0649   62.0688   40.5959 R7         2 LUT      0.087068
    200 H193       67.5260   60.5769   44.5699 R4         2 LUT      0.089716
    201 H192       68.8558   60.6161   43.5098 R4         2 LUT      0.089716
    202 H191       68.8066   59.5103   45.0117 R4         2 LUT      0.089716
    203 H183       65.7691   62.8837   46.4222 R1         2 LUT      0.094572
    204 H182       64.6056   63.7592   47.4439 R1         2 LUT      0.094572
    205 H181       66.1443   64.3824   47.1387 R1         2 LUT      0.094572
    206 H173       69.3006   61.8115   50.6421 T4         2 LUT      0.093752
    207 H172       67.9429   62.4426   51.3857 T4         2 LUT      0.093752
    208 H171       68.4543   60.7734   51.7920 T4         2 LUT      0.093752
    209 H163       68.4159   58.8955   50.2442 T4         2 LUT      0.093752
    210 H162       67.6138   58.8885   48.7274 T4         2 LUT      0.093752
    211 H161       69.1253   59.8302   49.0390 T4         2 LUT      0.093752
    212 HO3        64.8738   61.8645   52.6428 Q1         2 LUT      0.300121
    213 H8         69.0685   62.8747   47.0439 U7         2 LUT      0.080784
    214 H7         67.1293   60.5022   46.8074 U6         2 LUT      0.042190
    215 H42        64.6941   63.8425   49.7461 U5         2 LUT      0.145166
    216 H41        66.2947   63.7163   50.4233 U5         2 LUT      0.145166
    217 H35        76.6642   64.4371   42.4877 T3         2 LUT      0.077919
    218 H34        77.3599   63.2720   39.8950 T2         2 LUT      0.073626
    219 H32        79.4054   63.7066   38.6166 T1         2 LUT      0.092510
    220 H31        81.3243   65.9775   39.7062 U9         2 LUT      0.070048
    221 H30        81.4352   64.2793   37.1798 U8         2 LUT      0.085442
    222 H3         64.1795   61.8232   50.4788 U3         2 LUT     -0.031596
    223 H28        83.1444   64.3568   35.8178 U7         2 LUT      0.084728
    224 H27        85.0040   66.6992   36.1120 U6         2 LUT      0.087291
    225 H26        84.8239   64.3481   34.3687 Q6         2 LUT      0.075325
    226 H24        86.6797   66.2994   31.6008 Q5         2 LUT      0.094482
    227 H23        88.6208   65.6067   33.3274 U3         2 LUT     -0.024869
    228 H22        65.5430   60.2394   49.7077 U2         2 LUT      0.127376
    229 H21        66.0609   59.9950   51.3037 U2         2 LUT      0.127376
    230 H15        75.3779   62.6287   40.4586 T3         2 LUT      0.093200
    231 H14        74.5923   63.8503   43.1451 T2         2 LUT      0.068865
    232 H12        72.6095   63.4433   44.2259 T1         2 LUT      0.095507
    233 H11        70.9001   61.1185   43.1457 U9         2 LUT      0.068930
    234 H10        70.7573   62.9112   45.5842 U8         2 LUT      0.083911
    235 H1         88.2727   63.9930   31.1055 Q1         2 LUT      0.297311
@<TRIPOS>BOND
    1     6     1 1
    2     7     2 1
    3     8     3 1
    4     9     4 1
    5    11     4 1
    6    12     6 1
    7    13     9 1
    8    16     9 1
    9    25     5 1
   10    25    16 1
   11    26    10 1
   12    26    17 1
   13    27    18 1
   14    28    14 1
   15    28    19 1
   16    29    12 1
   17    30    13 1
   18    31    24 1
   19    32     1 1
   20    32    25 1
   21    33    21 1
   22    33    26 1
   23    34    22 1
   24    34    27 1
   25    35    23 1
   26    35    28 1
   27    36    12 1
   28    36    24 1
   29    37    13 1
   30    37    15 1
   31    38    31 1
   32    39    20 1
   33    39    32 1
   34    40     2 1
   35    40    33 1
   36    41     3 1
   37    41    34 1
   38    42     4 1
   39    42    35 1
   40    43    38 1
   41    44     5 1
   42    44    17 1
   43    44    39 1
   44    45    10 1
   45    45    18 1
   46    45    40 1
   47    46    19 1
   48    46    41 1
   49    47    14 1
   50    47    16 1
   51    47    42 1
   52    48    38 1
   53    49    48 1
   54    50    49 1
   55    51    50 1
   56    52    51 1
   57    53    51 1
   58    54    53 1
   59    55    54 1
   60    56    55 1
   61    57    56 1
   62    58    56 1
   63    59    58 1
   64    60    59 1
   65    61    60 1
   66    62    61 1
   67    63    61 1
   68    64    27 1
   69    64    46 1
   70    65     5 1
   71    65    10 1
   72    65    64 1
   73    65    14 1
   74    66    23 1
   75    67    23 1
   76    68    23 1
   77    69    22 1
   78    70    22 1
   79    71    22 1
   80    72    21 1
   81    73    21 1
   82    74    21 1
   83    75    20 1
   84    76    20 1
   85    77    20 1
   86    78    15 1
   87    79    15 1
   88    80    15 1
   89    81     8 1
   90    82     8 1
   91    83     8 1
   92    84     7 1
   93    85     7 1
   94    86     6 1
   95    87     6 1
   96    88     3 1
   97    89     3 1
   98    90     1 1
   99    91     1 1
  100    92    63 1
  101    93    63 1
  102    94    63 1
  103    95    62 1
  104    96    62 1
  105    97    62 1
  106    98    60 1
  107    99    60 1
  108   100    59 1
  109   101    59 1
  110   102    58 1
  111   103    58 1
  112   104    57 1
  113   105    57 1
  114   106    57 1
  115   107    55 1
  116   108    55 1
  117   109    54 1
  118   110    54 1
  119   111    53 1
  120   112    53 1
  121   113    19 1
  122   114    18 1
  123   115    17 1
  124   116     9 1
  125   117     2 1
  126   118    52 1
  127   119    52 1
  128   120    52 1
  129   121    51 1
  130   122    50 1
  131   123    50 1
  132   124    49 1
  133   125    49 1
  134   126    48 1
  135   127    48 1
  136   128    43 1
  137   129    43 1
  138   130    43 1
  139   131    39 1
  140   132    32 1
  141   133    31 1
  142   134    61 1
  143   135    56 1
  144   136    24 1
  145   137    24 1
  146   139   138 1
  147   140   139 1
  148   141   140 1
  149   142   140 1
  150   143   142 1
  151   144   138 1
  152   144   143 1
  153   145   144 1
  154   146   145 1
  155   147   146 1
  156   148   147 1
  157   149   148 1
  158   150   149 1
  159   151   150 1
  160   152   151 1
  161   153   152 1
  162   154   138 1
  163   155   138 1
  164   156   143 1
  165   157   147 1
  166   158   151 1
  167   160   159 1
  168   161   160 1
  169   162   161 1
  170   163   161 1
  171   164   163 1
  172   165   159 1
  173   165   164 1
  174   166   165 1
  175   167   166 1
  176   168   167 1
  177   169   168 1
  178   170   169 1
  179   171   170 1
  180   172   171 1
  181   173   172 1
  182   174   153 1
  183   174   173 1
  184   175   159 1
  185   176   159 1
  186   177   164 1
  187   178   168 1
  188   179   172 1
  189   180   179 1
  190   181   179 1
  191   182   179 1
  192   183   178 1
  193   184   178 1
  194   185   178 1
  195   186   177 1
  196   187   177 1
  197   188   177 1
  198   189   176 1
  199   190   176 1
  200   191   176 1
  201   192   175 1
  202   193   175 1
  203   194   175 1
  204   195   160 1
  205   196   160 1
  206   197   158 1
  207   198   158 1
  208   199   158 1
  209   200   157 1
  210   201   157 1
  211   202   157 1
  212   203   156 1
  213   204   156 1
  214   205   156 1
  215   206   155 1
  216   207   155 1
  217   208   155 1
  218   209   154 1
  219   210   154 1
  220   211   154 1
  221   212   141 1
  222   213   146 1
  223   214   145 1
  224   215   142 1
  225   216   142 1
  226   217   174 1
  227   218   173 1
  228   219   171 1
  229   220   170 1
  230   221   169 1
  231   222   140 1
  232   223   167 1
  233   224   166 1
  234   225   165 1
  235   226   163 1
  236   227   161 1
  237   228   139 1
  238   229   139 1
  239   230   153 1
  240   231   152 1
  241   232   150 1
  242   233   149 1
  243   234   148 1
  244   235   162 1
  245   65    153 1
  246   65    174 1
@<TRIPOS>SUBSTRUCTURE
      1 CLA               1 ****               0 ****  **** 
      2 LUT             138 ****               0 ****  **** 
