@<TRIPOS>MOLECULE
Cpptraj generated mol2 file.
  235   246     2     0     0
SMALL
USER_CHARGES


@<TRIPOS>ATOM
      1 CAA        79.8445   58.5497   34.4201 a2         1 CLA     -0.055900
      2 CAB        79.9080   62.4359   43.4890 c8         1 CLA     -0.148500
      3 CAC        73.0876   58.2884   42.9439 a2         1 CLA     -0.012600
      4 CAD        75.6496   56.1395   35.6349 ck         1 CLA      0.398800
      5 NA         78.8287   59.2133   37.7050 ns         1 CLA     -0.225500
      6 CBA        81.0956   58.3886   33.5542 a2         1 CLA     -0.135000
      7 CBB        81.1195   62.5884   44.0829 c0         1 CLA     -0.395200
      8 CBC        73.1537   56.7844   42.7258 a3         1 CLA     -0.037700
      9 CBD        77.1161   56.6297   35.3427 a1         1 CLA     -0.053900
     10 NB         78.7465   60.7856   40.3470 nm         1 CLA     -0.295700
     11 OBD        75.0719   55.3207   34.9384 o2         1 CLA     -0.494600
     12 CGA        81.5138   56.9782   33.2975 c4         1 CLA      0.827000
     13 CGD        78.1039   55.4444   35.2348 c4         1 CLA      0.655300
     14 ND         75.9952   58.4049   38.3388 nm         1 CLA     -0.291600
     15 CED        78.7462   53.2929   36.1739 a3         1 CLA      0.005400
     16 CHA        77.4901   57.6960   36.4384 cs         1 CLA     -0.123800
     17 CHB        80.5687   60.4584   38.8061 aa         1 CLA     -0.291900
     18 CHC        77.4757   60.8290   42.4441 aa         1 CLA     -0.090400
     19 CHD        74.2573   58.1258   39.9936 aa         1 CLA     -0.052000
     20 CMA        82.2188   58.2831   37.4239 a3         1 CLA     -0.230700
     21 CMB        82.1779   62.4184   40.9705 a3         1 CLA     -0.180800
     22 CMC        75.3315   60.0456   44.5106 a3         1 CLA     -0.134000
     23 CMD        72.9479   56.2618   37.7779 a3         1 CLA     -0.141100
     24 C1         82.6851   55.0977   34.4574 a2         1 CLA      0.023000
     25 C1A        78.7511   58.2646   36.7122 ac         1 CLA     -0.015100
     26 C1B        80.0275   61.0620   39.9781 cr         1 CLA      0.054700
     27 C1C        76.2647   60.1798   42.1050 cn         1 CLA     -0.005600
     28 C1D        74.8070   57.8635   38.7286 ap         1 CLA     -0.047300
     29 O1A        81.2338   56.3595   32.3044 o2         1 CLA     -0.610800
     30 O1D        78.9788   55.3113   34.3622 o2         1 CLA     -0.558200
     31 C2         83.3969   54.9329   35.6911 c8         1 CLA     -0.325100
     32 C2A        80.0392   58.1466   35.9338 a1         1 CLA      0.098600
     33 C2B        80.6788   61.8383   41.0025 cb         1 CLA      0.088500
     34 C2C        75.2625   59.8244   43.0633 cb         1 CLA      0.053700
     35 C2D        74.2637   56.9790   37.7211 cb         1 CLA      0.058900
     36 O2A        82.2357   56.5286   34.3985 o1         1 CLA     -0.437200
     37 O2D        77.8937   54.4879   36.2073 o1         1 CLA     -0.357600
     38 C3         84.6227   54.4123   35.8146 c5         1 CLA      0.031200
     39 C3A        81.0383   59.0218   36.7800 a1         1 CLA      0.166800
     40 C3B        79.7111   61.9086   42.0976 cb         1 CLA      0.035000
     41 C3C        74.2541   59.1297   42.2925 cb         1 CLA     -0.089900
     42 C3D        75.3132   56.8482   36.8312 cb         1 CLA     -0.035900
     43 C4         84.7939   52.9622   36.1918 a3         1 CLA     -0.053300
     44 C4A        80.1134   59.6408   37.8112 ac         1 CLA      0.001800
     45 C4B        78.5877   61.1455   41.6167 cn         1 CLA     -0.020900
     46 C4C        74.8242   58.9079   41.0063 cr         1 CLA     -0.044400
     47 C4D        76.3562   57.7747   37.1946 c6         1 CLA     -0.046000
     48 C5         85.8562   55.2728   35.6098 a2         1 CLA     -0.070400
     49 C6         86.0818   56.2444   36.6727 a2         1 CLA      0.043900
     50 C7         86.7547   55.7008   38.0149 a2         1 CLA     -0.150000
     51 C8         87.0333   56.7280   39.1373 a1         1 CLA      0.064200
     52 C9         87.8083   57.9698   38.5454 a3         1 CLA     -0.259300
     53 C10        87.5281   56.1839   40.5111 a2         1 CLA     -0.071900
     54 C11        87.4527   57.2027   41.6824 a2         1 CLA      0.014500
     55 C12        87.6866   56.6188   43.0238 a2         1 CLA     -0.112100
     56 C13        87.7589   57.4964   44.2603 a1         1 CLA      0.089200
     57 C14        89.0683   58.2422   44.2657 a3         1 CLA     -0.239100
     58 C15        87.7083   56.7086   45.5831 a2         1 CLA     -0.102200
     59 C16        87.2767   57.3657   46.9258 a2         1 CLA      0.023900
     60 C17        85.7577   57.3745   47.0684 a2         1 CLA     -0.105700
     61 C18        84.9240   58.5794   47.6493 a1         1 CLA      0.206800
     62 C19        83.4108   58.2752   47.5618 a3         1 CLA     -0.280100
     63 C20        85.3240   58.9271   49.0518 a3         1 CLA     -0.280100
     64 NC         76.0019   59.6679   40.9075 nx         1 CLA     -0.309200
     65 MG         77.3237   59.6485   39.3121 mg         1 CLA      0.895000
     66 HMD3       72.0457   56.8899   37.8262 dc         1 CLA      0.064300
     67 HMD2       72.8508   55.5574   36.9189 dc         1 CLA      0.064300
     68 HMD1       73.0071   55.6965   38.7119 dc         1 CLA      0.064300
     69 HMC3       75.8040   60.9998   44.7041 dc         1 CLA      0.052100
     70 HMC2       74.4089   60.1348   44.9401 dc         1 CLA      0.052100
     71 HMC1       76.0119   59.2393   44.7782 dc         1 CLA      0.052100
     72 HMB3       82.1353   63.1894   41.7309 dc         1 CLA      0.063600
     73 HMB2       82.8977   61.6166   41.0951 dc         1 CLA      0.063600
     74 HMB1       82.2982   63.0275   40.1320 dc         1 CLA      0.063600
     75 HMA3       81.9954   57.5288   38.1492 dc         1 CLA      0.058300
     76 HMA2       82.6684   57.8598   36.5292 dc         1 CLA      0.058300
     77 HMA1       82.9147   58.9111   38.0471 dc         1 CLA      0.058300
     78 HED3       78.6769   52.8087   37.0859 dc         1 CLA      0.079300
     79 HED2       78.3261   52.6479   35.3940 dc         1 CLA      0.079300
     80 HED1       79.7579   53.5737   35.9801 dc         1 CLA      0.079300
     81 HBC3       74.1370   56.4531   43.0839 dc         1 CLA      0.016300
     82 HBC2       72.4557   56.3671   43.3909 dc         1 CLA      0.016300
     83 HBC1       72.7898   56.4041   41.6898 dc         1 CLA      0.016300
     84 HBB2       81.2092   62.9313   45.1280 da         1 CLA      0.183000
     85 HBB1       82.0140   62.2370   43.5604 da         1 CLA      0.183000
     86 HBA2       80.7805   58.8614   32.5947 dc         1 CLA      0.029400
     87 HBA1       81.8928   59.0108   33.9671 dc         1 CLA      0.029400
     88 HAC2       73.1375   58.4552   43.9963 dc         1 CLA      0.029300
     89 HAC1       72.1140   58.5846   42.5316 dc         1 CLA      0.029300
     90 HAA2       79.0497   57.9372   33.9877 dc         1 CLA      0.028700
     91 HAA1       79.4927   59.5676   34.3795 dc         1 CLA      0.028700
     92 H203       84.6287   58.4354   49.7726 dc         1 CLA      0.065600
     93 H202       86.3922   58.6574   49.3275 dc         1 CLA      0.065600
     94 H201       85.1499   59.9582   49.2164 dc         1 CLA      0.065600
     95 H193       83.2107   57.9249   46.5333 dc         1 CLA      0.065600
     96 H192       83.0002   57.4984   48.2480 dc         1 CLA      0.065600
     97 H191       83.0062   59.2832   47.7067 dc         1 CLA      0.065600
     98 H172       85.5232   57.2847   45.9922 dc         1 CLA      0.027600
     99 H171       85.4312   56.4621   47.6490 dc         1 CLA      0.027600
    100 H162       87.5739   56.7633   47.7681 dc         1 CLA      0.002900
    101 H161       87.7852   58.3380   46.9928 dc         1 CLA      0.002900
    102 H152       87.0707   55.8471   45.5002 dc         1 CLA      0.029100
    103 H151       88.7312   56.3397   45.7049 dc         1 CLA      0.029100
    104 H143       89.0654   59.1234   43.5666 dc         1 CLA      0.063600
    105 H142       89.4444   58.4674   45.2976 dc         1 CLA      0.063600
    106 H141       89.7939   57.5741   43.8412 dc         1 CLA      0.063600
    107 H122       86.9039   55.8218   43.0999 dc         1 CLA      0.032500
    108 H121       88.6109   55.9872   43.1054 dc         1 CLA      0.032500
    109 H112       88.2419   57.9368   41.5175 dc         1 CLA      0.006600
    110 H111       86.5174   57.5887   41.6874 dc         1 CLA      0.006600
    111 H102       86.8269   55.4030   40.8075 dc         1 CLA      0.024100
    112 H101       88.5792   55.9791   40.5270 dc         1 CLA      0.024100
    113 HHD        73.2525   57.7821   40.2471 da         1 CLA      0.174300
    114 HHC        77.5083   61.2173   43.4846 da         1 CLA      0.136800
    115 HHB        81.5801   60.8249   38.7435 da         1 CLA      0.138300
    116 HBD        76.9575   57.0915   34.3607 dc         1 CLA      0.107700
    117 HAB        79.0352   62.6056   44.1095 da         1 CLA      0.155200
    118 H93        88.1332   58.6398   39.3109 dc         1 CLA      0.069500
    119 H92        88.6832   57.7647   37.9145 dc         1 CLA      0.069500
    120 H91        87.0578   58.6016   38.0031 dc         1 CLA      0.069500
    121 H8         86.0489   57.1108   39.4575 dc         1 CLA      0.029300
    122 H72        86.1248   54.9915   38.4580 dc         1 CLA      0.044400
    123 H71        87.7377   55.2590   37.7853 dc         1 CLA      0.044400
    124 H62        86.7459   56.9950   36.2407 dc         1 CLA      0.015600
    125 H61        85.1071   56.6718   36.7999 dc         1 CLA      0.015600
    126 H52        86.6446   54.4850   35.4979 dc         1 CLA      0.033200
    127 H51        85.6993   55.7643   34.6815 dc         1 CLA      0.033200
    128 H43        83.8770   52.4049   36.5317 dc         1 CLA      0.037000
    129 H42        85.2605   52.3170   35.4629 dc         1 CLA      0.037000
    130 H41        85.4979   53.0022   37.0555 dc         1 CLA      0.037000
    131 H3A        81.4272   59.8238   36.1695 dc         1 CLA      0.041100
    132 H2A        80.3313   57.1318   36.0557 dc         1 CLA      0.083100
    133 H2         82.8707   55.1475   36.6048 da         1 CLA      0.180900
    134 H18        85.1601   59.3313   46.9649 dc         1 CLA     -0.003900
    135 H13        86.9086   58.2530   44.3224 dc         1 CLA      0.019700
    136 H12        81.6929   54.6034   34.5076 dc         1 CLA      0.120400
    137 H11        83.2169   54.7511   33.5546 dc         1 CLA      0.120400
    138 C1         69.5790   61.5581   50.1882 Z1         2 LUT      0.509236
    139 C2         69.1382   62.3677   51.3987 Z2         2 LUT     -0.434695
    140 C3         67.6844   62.6936   51.4002 Z3         2 LUT      0.437453
    141 O3         67.3240   63.5204   52.4914 S1         2 LUT     -0.547129
    142 C4         67.3501   63.4609   50.1278 Z4         2 LUT     -0.468603
    143 C5         67.9406   62.9885   48.8577 Z5         2 LUT      0.279246
    144 C6         68.9572   62.0498   48.8235 Z6         2 LUT     -0.305473
    145 C7         69.5840   61.7105   47.5139 Z7         2 LUT      0.069402
    146 C8         70.5502   62.4056   46.8602 Z8         2 LUT     -0.191631
    147 C9         71.2878   61.9753   45.6413 Z9         2 LUT      0.196698
    148 C10        72.3923   62.7442   45.3015 Y1         2 LUT     -0.208611
    149 C11        73.3431   62.7147   44.2113 Y2         2 LUT      0.030784
    150 C12        74.4558   63.4621   43.8752 Y3         2 LUT     -0.220316
    151 C13        75.3232   63.5012   42.7345 Y4         2 LUT      0.215937
    152 C14        76.5183   64.2825   42.6871 Y5         2 LUT     -0.185793
    153 C15        77.4907   64.4371   41.6934 Y6         2 LUT     -0.057835
    154 C16        69.1033   60.0818   50.3438 Y7         2 LUT     -0.405615
    155 C17        71.1116   61.5812   50.0974 Y7         2 LUT     -0.405615
    156 C18        67.7030   63.9842   47.7458 Y9         2 LUT     -0.369639
    157 C19        70.6791   60.9477   44.7074 W1         2 LUT     -0.333362
    158 C20        74.6649   63.1073   41.4083 W2         2 LUT     -0.323439
    159 C21        88.6950   66.0103   35.1523 Z1         2 LUT      0.406104
    160 C22        89.2629   65.2626   33.8882 Z2         2 LUT     -0.404965
    161 C23        89.0539   66.0099   32.6320 Z3         2 LUT      0.391255
    162 O23        89.5309   65.1732   31.5530 S1         2 LUT     -0.528210
    163 C24        87.6902   66.5260   32.5456 W6         2 LUT     -0.258361
    164 C25        86.8334   66.7616   33.5471 Z5         2 LUT      0.133546
    165 C26        87.1691   66.2816   34.9495 W8         2 LUT     -0.147008
    166 C27        86.4873   67.0800   36.0469 Z7         2 LUT      0.023843
    167 C28        85.3356   66.6085   36.5812 Z8         2 LUT     -0.216987
    168 C29        84.4247   67.2600   37.4688 Z9         2 LUT      0.206524
    169 C30        83.3430   66.5836   37.8967 Y1         2 LUT     -0.215556
    170 C31        82.5147   66.6999   39.1050 Y2         2 LUT      0.025142
    171 C32        81.5105   65.8467   39.4594 Y3         2 LUT     -0.212209
    172 C33        80.7087   66.0008   40.6713 Y4         2 LUT      0.240937
    173 C34        79.6474   65.1466   40.6541 Y5         2 LUT     -0.218862
    174 C35        78.6846   65.0673   41.7305 Y6         2 LUT     -0.023547
    175 C36        89.4809   67.3397   35.2907 Y7         2 LUT     -0.393485
    176 C37        88.9865   65.1309   36.3246 Y7         2 LUT     -0.393485
    177 C38        85.5231   67.4290   33.1648 Y9         2 LUT     -0.387526
    178 C39        84.8597   68.6267   37.9898 W1         2 LUT     -0.322618
    179 C40        81.1781   66.8084   41.8393 W2         2 LUT     -0.358472
    180 H403       81.8047   67.6961   41.6334 R7         2 LUT      0.097720
    181 H402       80.4447   67.1465   42.5563 R7         2 LUT      0.097720
    182 H401       81.8979   66.1541   42.3655 R7         2 LUT      0.097720
    183 H393       85.7904   68.6653   38.6957 R4         2 LUT      0.082505
    184 H392       85.2210   69.3015   37.2444 R4         2 LUT      0.082505
    185 H391       84.0294   69.1314   38.5623 R4         2 LUT      0.082505
    186 H383       85.1223   68.1325   33.9275 R1         2 LUT      0.104030
    187 H382       85.6295   68.0319   32.2125 R1         2 LUT      0.104030
    188 H381       84.8909   66.5112   32.9535 R1         2 LUT      0.104030
    189 H373       90.0596   65.1546   36.4803 T4         2 LUT      0.089537
    190 H372       88.4396   65.6056   37.1471 T4         2 LUT      0.089537
    191 H371       88.5955   64.1058   36.2177 T4         2 LUT      0.089537
    192 H363       89.5308   67.7995   36.2175 T4         2 LUT      0.089537
    193 H362       90.5610   67.2098   35.0632 T4         2 LUT      0.089537
    194 H361       89.0565   68.0221   34.5227 T4         2 LUT      0.089537
    195 H222       90.3814   65.2892   33.9743 U2         2 LUT      0.127376
    196 H221       88.8335   64.1994   33.8617 U2         2 LUT      0.127376
    197 H203       73.7368   62.5951   41.4739 R7         2 LUT      0.087068
    198 H202       74.3443   63.9736   40.7715 R7         2 LUT      0.087068
    199 H201       75.3376   62.5124   40.7763 R7         2 LUT      0.087068
    200 H193       70.5613   60.0017   45.2627 R4         2 LUT      0.089716
    201 H192       69.6807   61.1515   44.2876 R4         2 LUT      0.089716
    202 H191       71.2979   60.5788   43.9018 R4         2 LUT      0.089716
    203 H183       66.7259   64.4255   47.8635 R1         2 LUT      0.094572
    204 H182       68.5210   64.7200   47.7669 R1         2 LUT      0.094572
    205 H181       67.7316   63.4489   46.8016 R1         2 LUT      0.094572
    206 H173       71.5490   62.6037   49.9492 T4         2 LUT      0.093752
    207 H172       71.6452   61.3087   50.9824 T4         2 LUT      0.093752
    208 H171       71.4526   60.9271   49.3376 T4         2 LUT      0.093752
    209 H163       69.6569   59.7548   51.2145 T4         2 LUT      0.093752
    210 H162       68.0609   60.0010   50.5321 T4         2 LUT      0.093752
    211 H161       69.4092   59.4268   49.5650 T4         2 LUT      0.093752
    212 HO3        66.9850   63.0237   53.2037 Q1         2 LUT      0.300121
    213 H8         70.9608   63.2609   47.3589 U7         2 LUT      0.080784
    214 H7         69.2914   60.7538   47.1973 U6         2 LUT      0.042190
    215 H42        66.2819   63.4393   50.0356 U5         2 LUT      0.145166
    216 H41        67.4895   64.5097   50.2909 U5         2 LUT      0.145166
    217 H35        78.7773   65.6298   42.6968 T3         2 LUT      0.077919
    218 H34        79.5389   64.4680   39.7532 T2         2 LUT      0.073626
    219 H32        81.3166   64.9878   38.8270 T1         2 LUT      0.092510
    220 H31        82.7832   67.5869   39.6727 U9         2 LUT      0.070048
    221 H30        83.0707   65.6651   37.4052 U8         2 LUT      0.085442
    222 H3         67.0667   61.7894   51.5094 U3         2 LUT     -0.031596
    223 H28        84.9078   65.7306   36.1803 U7         2 LUT      0.084728
    224 H27        86.9283   68.0666   36.3823 U6         2 LUT      0.087291
    225 H26        86.8514   65.1860   34.9876 Q6         2 LUT      0.075325
    226 H24        87.3942   66.8801   31.5231 Q5         2 LUT      0.094482
    227 H23        89.7580   66.9006   32.7214 U3         2 LUT     -0.024869
    228 H22        69.3567   61.7552   52.2598 U2         2 LUT      0.127376
    229 H21        69.8177   63.2167   51.5447 U2         2 LUT      0.127376
    230 H15        77.3224   63.8375   40.8159 T3         2 LUT      0.093200
    231 H14        76.8102   64.8101   43.5832 T2         2 LUT      0.068865
    232 H12        74.7697   64.2086   44.6088 T1         2 LUT      0.095507
    233 H11        72.9803   62.0454   43.4615 U9         2 LUT      0.068930
    234 H10        72.6920   63.4949   46.0642 U8         2 LUT      0.083911
    235 H1         89.4515   65.5917   30.6521 Q1         2 LUT      0.297311
@<TRIPOS>BOND
    1     6     1 1
    2     7     2 1
    3     8     3 1
    4     9     4 1
    5    11     4 1
    6    12     6 1
    7    13     9 1
    8    16     9 1
    9    25     5 1
   10    25    16 1
   11    26    10 1
   12    26    17 1
   13    27    18 1
   14    28    14 1
   15    28    19 1
   16    29    12 1
   17    30    13 1
   18    31    24 1
   19    32     1 1
   20    32    25 1
   21    33    21 1
   22    33    26 1
   23    34    22 1
   24    34    27 1
   25    35    23 1
   26    35    28 1
   27    36    12 1
   28    36    24 1
   29    37    13 1
   30    37    15 1
   31    38    31 1
   32    39    20 1
   33    39    32 1
   34    40     2 1
   35    40    33 1
   36    41     3 1
   37    41    34 1
   38    42     4 1
   39    42    35 1
   40    43    38 1
   41    44     5 1
   42    44    17 1
   43    44    39 1
   44    45    10 1
   45    45    18 1
   46    45    40 1
   47    46    19 1
   48    46    41 1
   49    47    14 1
   50    47    16 1
   51    47    42 1
   52    48    38 1
   53    49    48 1
   54    50    49 1
   55    51    50 1
   56    52    51 1
   57    53    51 1
   58    54    53 1
   59    55    54 1
   60    56    55 1
   61    57    56 1
   62    58    56 1
   63    59    58 1
   64    60    59 1
   65    61    60 1
   66    62    61 1
   67    63    61 1
   68    64    27 1
   69    64    46 1
   70    65     5 1
   71    65    10 1
   72    65    64 1
   73    65    14 1
   74    66    23 1
   75    67    23 1
   76    68    23 1
   77    69    22 1
   78    70    22 1
   79    71    22 1
   80    72    21 1
   81    73    21 1
   82    74    21 1
   83    75    20 1
   84    76    20 1
   85    77    20 1
   86    78    15 1
   87    79    15 1
   88    80    15 1
   89    81     8 1
   90    82     8 1
   91    83     8 1
   92    84     7 1
   93    85     7 1
   94    86     6 1
   95    87     6 1
   96    88     3 1
   97    89     3 1
   98    90     1 1
   99    91     1 1
  100    92    63 1
  101    93    63 1
  102    94    63 1
  103    95    62 1
  104    96    62 1
  105    97    62 1
  106    98    60 1
  107    99    60 1
  108   100    59 1
  109   101    59 1
  110   102    58 1
  111   103    58 1
  112   104    57 1
  113   105    57 1
  114   106    57 1
  115   107    55 1
  116   108    55 1
  117   109    54 1
  118   110    54 1
  119   111    53 1
  120   112    53 1
  121   113    19 1
  122   114    18 1
  123   115    17 1
  124   116     9 1
  125   117     2 1
  126   118    52 1
  127   119    52 1
  128   120    52 1
  129   121    51 1
  130   122    50 1
  131   123    50 1
  132   124    49 1
  133   125    49 1
  134   126    48 1
  135   127    48 1
  136   128    43 1
  137   129    43 1
  138   130    43 1
  139   131    39 1
  140   132    32 1
  141   133    31 1
  142   134    61 1
  143   135    56 1
  144   136    24 1
  145   137    24 1
  146   139   138 1
  147   140   139 1
  148   141   140 1
  149   142   140 1
  150   143   142 1
  151   144   138 1
  152   144   143 1
  153   145   144 1
  154   146   145 1
  155   147   146 1
  156   148   147 1
  157   149   148 1
  158   150   149 1
  159   151   150 1
  160   152   151 1
  161   153   152 1
  162   154   138 1
  163   155   138 1
  164   156   143 1
  165   157   147 1
  166   158   151 1
  167   160   159 1
  168   161   160 1
  169   162   161 1
  170   163   161 1
  171   164   163 1
  172   165   159 1
  173   165   164 1
  174   166   165 1
  175   167   166 1
  176   168   167 1
  177   169   168 1
  178   170   169 1
  179   171   170 1
  180   172   171 1
  181   173   172 1
  182   174   153 1
  183   174   173 1
  184   175   159 1
  185   176   159 1
  186   177   164 1
  187   178   168 1
  188   179   172 1
  189   180   179 1
  190   181   179 1
  191   182   179 1
  192   183   178 1
  193   184   178 1
  194   185   178 1
  195   186   177 1
  196   187   177 1
  197   188   177 1
  198   189   176 1
  199   190   176 1
  200   191   176 1
  201   192   175 1
  202   193   175 1
  203   194   175 1
  204   195   160 1
  205   196   160 1
  206   197   158 1
  207   198   158 1
  208   199   158 1
  209   200   157 1
  210   201   157 1
  211   202   157 1
  212   203   156 1
  213   204   156 1
  214   205   156 1
  215   206   155 1
  216   207   155 1
  217   208   155 1
  218   209   154 1
  219   210   154 1
  220   211   154 1
  221   212   141 1
  222   213   146 1
  223   214   145 1
  224   215   142 1
  225   216   142 1
  226   217   174 1
  227   218   173 1
  228   219   171 1
  229   220   170 1
  230   221   169 1
  231   222   140 1
  232   223   167 1
  233   224   166 1
  234   225   165 1
  235   226   163 1
  236   227   161 1
  237   228   139 1
  238   229   139 1
  239   230   153 1
  240   231   152 1
  241   232   150 1
  242   233   149 1
  243   234   148 1
  244   235   162 1
  245   65    153 1
  246   65    174 1
@<TRIPOS>SUBSTRUCTURE
      1 CLA               1 ****               0 ****  **** 
      2 LUT             138 ****               0 ****  **** 
