@<TRIPOS>MOLECULE
Cpptraj generated mol2 file.
  235   246     2     0     0
SMALL
USER_CHARGES


@<TRIPOS>ATOM
      1 CAA        78.6625   57.0312   34.9280 a2         1 CLA     -0.055900
      2 CAB        78.6667   61.2028   43.8882 c8         1 CLA     -0.148500
      3 CAC        71.7330   56.9796   43.5675 a2         1 CLA     -0.012600
      4 CAD        74.1571   54.8706   36.1022 ck         1 CLA      0.398800
      5 NA         77.3876   57.7525   38.3732 ns         1 CLA     -0.225500
      6 CBA        79.9435   56.6480   34.2336 a2         1 CLA     -0.135000
      7 CBB        79.8419   61.5039   44.4881 c0         1 CLA     -0.395200
      8 CBC        71.7221   55.4334   43.7695 a3         1 CLA     -0.037700
      9 CBD        75.7383   55.3378   35.7811 a1         1 CLA     -0.053900
     10 NB         77.2618   59.3223   40.8243 nm         1 CLA     -0.295700
     11 OBD        73.4602   54.0983   35.3815 o2         1 CLA     -0.494600
     12 CGA        80.4233   55.2291   33.9973 c4         1 CLA      0.827000
     13 CGD        76.6038   54.0940   35.6824 c4         1 CLA      0.655300
     14 ND         74.7212   56.7038   39.0204 nm         1 CLA     -0.291600
     15 CED        76.7252   51.6499   35.8025 a3         1 CLA      0.005400
     16 CHA        76.0962   56.2512   36.9623 cs         1 CLA     -0.123800
     17 CHB        79.0880   59.3050   39.2074 aa         1 CLA     -0.291900
     18 CHC        76.1162   59.5402   43.0063 aa         1 CLA     -0.090400
     19 CHD        72.9572   56.4764   40.7483 aa         1 CLA     -0.052000
     20 CMA        80.7542   57.1569   37.8940 a3         1 CLA     -0.230700
     21 CMB        80.7488   60.7646   41.3441 a3         1 CLA     -0.180800
     22 CMC        73.8056   59.0308   45.0666 a3         1 CLA     -0.134000
     23 CMD        71.6709   54.4724   38.4803 a3         1 CLA     -0.141100
     24 C1         81.4335   53.3490   35.0249 a2         1 CLA      0.023000
     25 C1A        77.2950   56.8984   37.2200 ac         1 CLA     -0.015100
     26 C1B        78.5372   59.6974   40.4138 cr         1 CLA      0.054700
     27 C1C        74.9290   58.8242   42.7348 cn         1 CLA     -0.005600
     28 C1D        73.5389   56.1386   39.4956 ap         1 CLA     -0.047300
     29 O1A        80.4271   54.5856   32.9129 o2         1 CLA     -0.610800
     30 O1D        77.6813   54.0932   35.1046 o2         1 CLA     -0.558200
     31 C2         80.9781   52.8120   36.3528 c8         1 CLA     -0.325100
     32 C2A        78.6416   56.8377   36.5017 a1         1 CLA      0.098600
     33 C2B        79.3434   60.3174   41.4642 cb         1 CLA      0.088500
     34 C2C        73.8263   58.5253   43.6697 cb         1 CLA      0.053700
     35 C2D        72.9442   55.3023   38.4601 cb         1 CLA      0.058900
     36 O2A        80.8253   54.6734   35.1740 o1         1 CLA     -0.437200
     37 O2D        76.0429   52.9328   36.1491 o1         1 CLA     -0.357600
     38 C3         81.8214   52.1285   37.1454 c5         1 CLA      0.031200
     39 C3A        79.5651   57.8048   37.2379 a1         1 CLA      0.166800
     40 C3B        78.4483   60.4353   42.5744 cb         1 CLA      0.035000
     41 C3C        72.9486   57.6566   43.0217 cb         1 CLA     -0.089900
     42 C3D        73.8994   55.3883   37.4127 cb         1 CLA     -0.035900
     43 C4         81.9901   50.6546   37.1154 a3         1 CLA     -0.053300
     44 C4A        78.6206   58.4003   38.2477 ac         1 CLA      0.001800
     45 C4B        77.1715   59.7769   42.1285 cn         1 CLA     -0.020900
     46 C4C        73.4346   57.4007   41.6697 cr         1 CLA     -0.044400
     47 C4D        75.0121   56.1448   37.8418 c6         1 CLA     -0.046000
     48 C5         82.5078   52.8153   38.3434 a2         1 CLA     -0.070400
     49 C6         83.0535   54.2076   38.1318 a2         1 CLA      0.043900
     50 C7         83.5045   54.8436   39.4290 a2         1 CLA     -0.150000
     51 C8         84.2475   56.2392   39.4431 a1         1 CLA      0.064200
     52 C9         85.6589   56.0518   38.8025 a3         1 CLA     -0.259300
     53 C10        84.3464   56.9605   40.8297 a2         1 CLA     -0.071900
     54 C11        83.1118   57.1780   41.6092 a2         1 CLA      0.014500
     55 C12        83.2501   58.2213   42.7185 a2         1 CLA     -0.112100
     56 C13        84.0876   57.8464   43.9671 a1         1 CLA      0.089200
     57 C14        83.4542   56.7717   44.8251 a3         1 CLA     -0.239100
     58 C15        84.4534   59.1207   44.7910 a2         1 CLA     -0.102200
     59 C16        83.2837   59.9451   45.2549 a2         1 CLA      0.023900
     60 C17        83.7221   61.0250   46.3414 a2         1 CLA     -0.105700
     61 C18        82.6822   62.0123   46.8332 a1         1 CLA      0.206800
     62 C19        81.5562   61.2554   47.6102 a3         1 CLA     -0.280100
     63 C20        83.3925   63.0877   47.6867 a3         1 CLA     -0.280100
     64 NC         74.5810   58.1270   41.5749 nx         1 CLA     -0.309200
     65 MG         75.8999   58.0915   39.8461 mg         1 CLA      0.895000
     66 HMD3       71.5399   54.1101   39.4833 dc         1 CLA      0.064300
     67 HMD2       70.8287   55.1224   38.2296 dc         1 CLA      0.064300
     68 HMD1       71.7144   53.6312   37.7440 dc         1 CLA      0.064300
     69 HMC3       73.1745   59.8700   45.0477 dc         1 CLA      0.052100
     70 HMC2       73.5474   58.2403   45.8132 dc         1 CLA      0.052100
     71 HMC1       74.8454   59.1553   45.2791 dc         1 CLA      0.052100
     72 HMB3       81.1041   61.5372   42.0403 dc         1 CLA      0.063600
     73 HMB2       81.3705   59.8443   41.4392 dc         1 CLA      0.063600
     74 HMB1       80.8462   61.2154   40.3524 dc         1 CLA      0.063600
     75 HMA3       80.4252   56.3859   38.6354 dc         1 CLA      0.058300
     76 HMA2       81.4049   56.7089   37.2004 dc         1 CLA      0.058300
     77 HMA1       81.2702   57.9549   38.4054 dc         1 CLA      0.058300
     78 HED3       76.6175   51.5399   34.7221 dc         1 CLA      0.079300
     79 HED2       77.7422   51.6066   36.0973 dc         1 CLA      0.079300
     80 HED1       76.1656   50.8057   36.2280 dc         1 CLA      0.079300
     81 HBC3       70.8396   55.0710   44.3458 dc         1 CLA      0.016300
     82 HBC2       71.7916   54.8680   42.8403 dc         1 CLA      0.016300
     83 HBC1       72.5595   55.1781   44.4826 dc         1 CLA      0.016300
     84 HBB2       79.9936   62.0437   45.4086 da         1 CLA      0.183000
     85 HBB1       80.7442   61.4615   43.9031 da         1 CLA      0.183000
     86 HBA2       80.0668   57.2796   33.3800 dc         1 CLA      0.029400
     87 HBA1       80.8245   57.0532   34.8764 dc         1 CLA      0.029400
     88 HAC2       71.5327   57.3961   44.5809 dc         1 CLA      0.029300
     89 HAC1       70.9071   57.3071   42.9362 dc         1 CLA      0.029300
     90 HAA2       77.8742   56.4434   34.4357 dc         1 CLA      0.028700
     91 HAA1       78.4764   58.0445   34.7831 dc         1 CLA      0.028700
     92 H203       84.1030   62.7527   48.4938 dc         1 CLA      0.065600
     93 H202       83.9017   63.7997   47.0316 dc         1 CLA      0.065600
     94 H201       82.5911   63.7225   48.1219 dc         1 CLA      0.065600
     95 H193       80.9489   60.5152   47.0054 dc         1 CLA      0.065600
     96 H192       81.8941   60.8207   48.5685 dc         1 CLA      0.065600
     97 H191       80.8498   62.0418   47.8975 dc         1 CLA      0.065600
     98 H172       84.1873   60.5422   47.2137 dc         1 CLA      0.027600
     99 H171       84.5272   61.6127   45.8866 dc         1 CLA      0.027600
    100 H162       82.8001   60.4135   44.4081 dc         1 CLA      0.002900
    101 H161       82.5423   59.2087   45.6243 dc         1 CLA      0.002900
    102 H152       85.0942   58.8039   45.6214 dc         1 CLA      0.029100
    103 H151       84.9477   59.8374   44.1293 dc         1 CLA      0.029100
    104 H143       84.0044   56.5875   45.7276 dc         1 CLA      0.063600
    105 H142       82.4193   57.0788   45.1581 dc         1 CLA      0.063600
    106 H141       83.4358   55.8666   44.2357 dc         1 CLA      0.063600
    107 H122       83.8062   58.9860   42.2083 dc         1 CLA      0.032500
    108 H121       82.2273   58.6555   42.9616 dc         1 CLA      0.032500
    109 H112       82.3747   57.4863   40.8443 dc         1 CLA      0.006600
    110 H111       82.7656   56.2507   41.9755 dc         1 CLA      0.006600
    111 H102       85.0941   56.3833   41.4731 dc         1 CLA      0.024100
    112 H101       84.7739   57.9484   40.6134 dc         1 CLA      0.024100
    113 HHD        72.0943   55.8121   40.9250 da         1 CLA      0.174300
    114 HHC        76.3227   59.8334   44.0271 da         1 CLA      0.136800
    115 HHB        80.0231   59.7260   38.8910 da         1 CLA      0.138300
    116 HBD        75.6791   55.8703   34.7694 dc         1 CLA      0.107700
    117 HAB        77.7313   61.4622   44.4078 da         1 CLA      0.155200
    118 H93        85.7592   55.5516   37.8427 dc         1 CLA      0.069500
    119 H92        86.0917   57.0703   38.7880 dc         1 CLA      0.069500
    120 H91        86.3669   55.4823   39.4153 dc         1 CLA      0.069500
    121 H8         83.7327   56.9756   38.8739 dc         1 CLA      0.029300
    122 H72        82.5969   55.0834   40.0318 dc         1 CLA      0.044400
    123 H71        84.0610   54.1195   40.0334 dc         1 CLA      0.044400
    124 H62        83.9834   54.1887   37.5903 dc         1 CLA      0.015600
    125 H61        82.2653   54.7535   37.6485 dc         1 CLA      0.015600
    126 H52        81.7501   52.8863   39.1770 dc         1 CLA      0.033200
    127 H51        83.3156   52.1819   38.7546 dc         1 CLA      0.033200
    128 H43        83.0336   50.3631   36.8889 dc         1 CLA      0.037000
    129 H42        81.6999   50.1975   38.0817 dc         1 CLA      0.037000
    130 H41        81.3195   50.3049   36.3491 dc         1 CLA      0.037000
    131 H3A        79.9114   58.6215   36.6799 dc         1 CLA      0.041100
    132 H2A        79.0182   55.8295   36.6051 dc         1 CLA      0.083100
    133 H2         79.9363   53.0424   36.6474 da         1 CLA      0.180900
    134 H18        82.2135   62.5441   46.0196 dc         1 CLA     -0.003900
    135 H13        84.9913   57.3206   43.7335 dc         1 CLA      0.019700
    136 H12        81.0630   52.6034   34.3608 dc         1 CLA      0.120400
    137 H11        82.5323   53.3713   34.9665 dc         1 CLA      0.120400
    138 C1         68.6447   61.2549   50.1119 Z1         2 LUT      0.509236
    139 C2         67.3573   60.8721   50.8257 Z2         2 LUT     -0.434695
    140 C3         66.3457   61.9273   51.1738 Z3         2 LUT      0.437453
    141 O3         66.3771   62.4858   52.5427 S1         2 LUT     -0.547129
    142 C4         66.4586   63.1169   50.2391 Z4         2 LUT     -0.468603
    143 C5         67.1493   62.8796   48.9277 Z5         2 LUT      0.279246
    144 C6         68.1873   62.0713   48.8949 Z6         2 LUT     -0.305473
    145 C7         68.6806   61.5516   47.6197 Z7         2 LUT      0.069402
    146 C8         69.5015   62.1550   46.7261 Z8         2 LUT     -0.191631
    147 C9         70.0856   61.5296   45.4897 Z9         2 LUT      0.196698
    148 C10        71.0661   62.2132   44.8986 Y1         2 LUT     -0.208611
    149 C11        71.8797   61.8909   43.7355 Y2         2 LUT      0.030784
    150 C12        73.0450   62.4825   43.4799 Y3         2 LUT     -0.220316
    151 C13        73.8713   62.1036   42.3758 Y4         2 LUT      0.215937
    152 C14        75.1272   62.7080   42.3446 Y5         2 LUT     -0.185793
    153 C15        76.1287   62.6091   41.3589 Y6         2 LUT     -0.057835
    154 C16        69.2714   59.8301   49.8217 Y7         2 LUT     -0.405615
    155 C17        69.4910   61.9474   51.1779 Y7         2 LUT     -0.405615
    156 C18        66.4735   63.6181   47.7561 Y9         2 LUT     -0.369639
    157 C19        69.5977   60.1479   45.0427 W1         2 LUT     -0.333362
    158 C20        73.1980   61.6017   41.1347 W2         2 LUT     -0.323439
    159 C21        87.6058   63.9051   35.2884 Z1         2 LUT      0.406104
    160 C22        88.5194   63.5453   34.1163 Z2         2 LUT     -0.404965
    161 C23        88.6501   64.6319   33.0268 Z3         2 LUT      0.391255
    162 O23        89.4374   64.0641   31.9692 S1         2 LUT     -0.528210
    163 C24        87.3876   65.3318   32.6864 W6         2 LUT     -0.258361
    164 C25        86.2683   65.2377   33.4184 Z5         2 LUT      0.133546
    165 C26        86.2474   64.3697   34.7676 W8         2 LUT     -0.147008
    166 C27        85.4493   65.2180   35.7965 Z7         2 LUT      0.023843
    167 C28        84.4288   64.7103   36.5752 Z8         2 LUT     -0.216987
    168 C29        83.5943   65.1716   37.6820 Z9         2 LUT      0.206524
    169 C30        82.5202   64.4185   38.0982 Y1         2 LUT     -0.215556
    170 C31        81.5544   64.7341   39.1167 Y2         2 LUT      0.025142
    171 C32        80.3861   64.0558   39.2998 Y3         2 LUT     -0.212209
    172 C33        79.3799   64.2296   40.3334 Y4         2 LUT      0.240937
    173 C34        78.2764   63.3681   40.3779 Y5         2 LUT     -0.218862
    174 C35        77.2164   63.4261   41.3432 Y6         2 LUT     -0.023547
    175 C36        88.3301   65.1126   36.1196 Y7         2 LUT     -0.393485
    176 C37        87.5082   62.5925   36.1016 Y7         2 LUT     -0.393485
    177 C38        85.0125   65.9794   33.0125 Y9         2 LUT     -0.387526
    178 C39        84.0912   66.3992   38.4517 W1         2 LUT     -0.322618
    179 C40        79.7532   65.2139   41.4244 W2         2 LUT     -0.358472
    180 H403       80.0645   66.1417   40.9890 R7         2 LUT      0.097720
    181 H402       78.9262   65.4652   42.0075 R7         2 LUT      0.097720
    182 H401       80.5525   64.8381   42.0028 R7         2 LUT      0.097720
    183 H393       83.2617   67.0326   38.7626 R4         2 LUT      0.082505
    184 H392       84.6431   66.0384   39.3092 R4         2 LUT      0.082505
    185 H391       84.7000   67.0602   37.9250 R4         2 LUT      0.082505
    186 H383       84.5640   66.5912   33.8121 R1         2 LUT      0.104030
    187 H382       85.1620   66.7023   32.1893 R1         2 LUT      0.104030
    188 H381       84.2770   65.2482   32.7890 R1         2 LUT      0.104030
    189 H373       88.4043   62.3626   36.7034 T4         2 LUT      0.089537
    190 H372       86.6964   62.6806   36.8639 T4         2 LUT      0.089537
    191 H371       87.4697   61.7361   35.4865 T4         2 LUT      0.089537
    192 H363       89.2360   64.6483   36.5891 T4         2 LUT      0.089537
    193 H362       88.7292   65.9366   35.4676 T4         2 LUT      0.089537
    194 H361       87.8136   65.6892   36.8845 T4         2 LUT      0.089537
    195 H222       89.4948   63.4964   34.5651 U2         2 LUT      0.127376
    196 H221       88.2386   62.6008   33.7274 U2         2 LUT      0.127376
    197 H203       72.1041   61.6968   41.0671 R7         2 LUT      0.087068
    198 H202       73.5115   62.1974   40.2695 R7         2 LUT      0.087068
    199 H201       73.5690   60.6073   40.9072 R7         2 LUT      0.087068
    200 H193       70.1056   59.7726   44.1544 R4         2 LUT      0.089716
    201 H192       69.7544   59.4048   45.8532 R4         2 LUT      0.089716
    202 H191       68.5712   60.1686   44.8833 R4         2 LUT      0.089716
    203 H183       67.0509   64.4773   47.4879 R1         2 LUT      0.094572
    204 H182       66.3712   62.9445   46.9165 R1         2 LUT      0.094572
    205 H181       65.4534   63.9116   47.9422 R1         2 LUT      0.094572
    206 H173       69.9058   61.2314   51.9395 T4         2 LUT      0.093752
    207 H172       70.3401   62.5584   50.9183 T4         2 LUT      0.093752
    208 H171       68.9135   62.6493   51.7300 T4         2 LUT      0.093752
    209 H163       69.4303   59.3340   50.7986 T4         2 LUT      0.093752
    210 H162       68.6642   59.2223   49.2355 T4         2 LUT      0.093752
    211 H161       70.2150   59.7157   49.2711 T4         2 LUT      0.093752
    212 HO3        66.0319   61.7817   53.0708 Q1         2 LUT      0.300121
    213 H8         69.8428   63.1196   47.0194 U7         2 LUT      0.080784
    214 H7         68.2803   60.5692   47.3788 U6         2 LUT      0.042190
    215 H42        65.6380   63.7798   50.1342 U5         2 LUT      0.145166
    216 H41        67.1134   63.8901   50.7474 U5         2 LUT      0.145166
    217 H35        77.3158   64.1806   42.0949 T3         2 LUT      0.077919
    218 H34        78.2524   62.4242   39.7704 T2         2 LUT      0.073626
    219 H32        80.2101   63.2545   38.5471 T1         2 LUT      0.092510
    220 H31        81.7796   65.5315   39.7721 U9         2 LUT      0.070048
    221 H30        82.3473   63.4855   37.6001 U8         2 LUT      0.085442
    222 H3         65.3845   61.5301   50.9304 U3         2 LUT     -0.031596
    223 H28        83.9848   63.7981   36.2484 U7         2 LUT      0.084728
    224 H27        85.6633   66.1572   36.2142 U6         2 LUT      0.087291
    225 H26        85.6366   63.4847   34.5900 Q6         2 LUT      0.075325
    226 H24        87.4426   65.7139   31.6545 Q5         2 LUT      0.094482
    227 H23        89.2266   65.5365   33.4159 U3         2 LUT     -0.024869
    228 H22        66.7584   60.1353   50.3846 U2         2 LUT      0.127376
    229 H21        67.6199   60.2718   51.7203 U2         2 LUT      0.127376
    230 H15        76.0503   62.0005   40.4509 T3         2 LUT      0.093200
    231 H14        75.3829   63.3872   43.1830 T2         2 LUT      0.068865
    232 H12        73.3890   63.2156   44.1969 T1         2 LUT      0.095507
    233 H11        71.5701   61.0193   43.0887 U9         2 LUT      0.068930
    234 H10        71.2377   63.0987   45.5090 U8         2 LUT      0.083911
    235 H1         88.9294   63.5567   31.3436 Q1         2 LUT      0.297311
@<TRIPOS>BOND
    1     6     1 1
    2     7     2 1
    3     8     3 1
    4     9     4 1
    5    11     4 1
    6    12     6 1
    7    13     9 1
    8    16     9 1
    9    25     5 1
   10    25    16 1
   11    26    10 1
   12    26    17 1
   13    27    18 1
   14    28    14 1
   15    28    19 1
   16    29    12 1
   17    30    13 1
   18    31    24 1
   19    32     1 1
   20    32    25 1
   21    33    21 1
   22    33    26 1
   23    34    22 1
   24    34    27 1
   25    35    23 1
   26    35    28 1
   27    36    12 1
   28    36    24 1
   29    37    13 1
   30    37    15 1
   31    38    31 1
   32    39    20 1
   33    39    32 1
   34    40     2 1
   35    40    33 1
   36    41     3 1
   37    41    34 1
   38    42     4 1
   39    42    35 1
   40    43    38 1
   41    44     5 1
   42    44    17 1
   43    44    39 1
   44    45    10 1
   45    45    18 1
   46    45    40 1
   47    46    19 1
   48    46    41 1
   49    47    14 1
   50    47    16 1
   51    47    42 1
   52    48    38 1
   53    49    48 1
   54    50    49 1
   55    51    50 1
   56    52    51 1
   57    53    51 1
   58    54    53 1
   59    55    54 1
   60    56    55 1
   61    57    56 1
   62    58    56 1
   63    59    58 1
   64    60    59 1
   65    61    60 1
   66    62    61 1
   67    63    61 1
   68    64    27 1
   69    64    46 1
   70    65     5 1
   71    65    10 1
   72    65    64 1
   73    65    14 1
   74    66    23 1
   75    67    23 1
   76    68    23 1
   77    69    22 1
   78    70    22 1
   79    71    22 1
   80    72    21 1
   81    73    21 1
   82    74    21 1
   83    75    20 1
   84    76    20 1
   85    77    20 1
   86    78    15 1
   87    79    15 1
   88    80    15 1
   89    81     8 1
   90    82     8 1
   91    83     8 1
   92    84     7 1
   93    85     7 1
   94    86     6 1
   95    87     6 1
   96    88     3 1
   97    89     3 1
   98    90     1 1
   99    91     1 1
  100    92    63 1
  101    93    63 1
  102    94    63 1
  103    95    62 1
  104    96    62 1
  105    97    62 1
  106    98    60 1
  107    99    60 1
  108   100    59 1
  109   101    59 1
  110   102    58 1
  111   103    58 1
  112   104    57 1
  113   105    57 1
  114   106    57 1
  115   107    55 1
  116   108    55 1
  117   109    54 1
  118   110    54 1
  119   111    53 1
  120   112    53 1
  121   113    19 1
  122   114    18 1
  123   115    17 1
  124   116     9 1
  125   117     2 1
  126   118    52 1
  127   119    52 1
  128   120    52 1
  129   121    51 1
  130   122    50 1
  131   123    50 1
  132   124    49 1
  133   125    49 1
  134   126    48 1
  135   127    48 1
  136   128    43 1
  137   129    43 1
  138   130    43 1
  139   131    39 1
  140   132    32 1
  141   133    31 1
  142   134    61 1
  143   135    56 1
  144   136    24 1
  145   137    24 1
  146   139   138 1
  147   140   139 1
  148   141   140 1
  149   142   140 1
  150   143   142 1
  151   144   138 1
  152   144   143 1
  153   145   144 1
  154   146   145 1
  155   147   146 1
  156   148   147 1
  157   149   148 1
  158   150   149 1
  159   151   150 1
  160   152   151 1
  161   153   152 1
  162   154   138 1
  163   155   138 1
  164   156   143 1
  165   157   147 1
  166   158   151 1
  167   160   159 1
  168   161   160 1
  169   162   161 1
  170   163   161 1
  171   164   163 1
  172   165   159 1
  173   165   164 1
  174   166   165 1
  175   167   166 1
  176   168   167 1
  177   169   168 1
  178   170   169 1
  179   171   170 1
  180   172   171 1
  181   173   172 1
  182   174   153 1
  183   174   173 1
  184   175   159 1
  185   176   159 1
  186   177   164 1
  187   178   168 1
  188   179   172 1
  189   180   179 1
  190   181   179 1
  191   182   179 1
  192   183   178 1
  193   184   178 1
  194   185   178 1
  195   186   177 1
  196   187   177 1
  197   188   177 1
  198   189   176 1
  199   190   176 1
  200   191   176 1
  201   192   175 1
  202   193   175 1
  203   194   175 1
  204   195   160 1
  205   196   160 1
  206   197   158 1
  207   198   158 1
  208   199   158 1
  209   200   157 1
  210   201   157 1
  211   202   157 1
  212   203   156 1
  213   204   156 1
  214   205   156 1
  215   206   155 1
  216   207   155 1
  217   208   155 1
  218   209   154 1
  219   210   154 1
  220   211   154 1
  221   212   141 1
  222   213   146 1
  223   214   145 1
  224   215   142 1
  225   216   142 1
  226   217   174 1
  227   218   173 1
  228   219   171 1
  229   220   170 1
  230   221   169 1
  231   222   140 1
  232   223   167 1
  233   224   166 1
  234   225   165 1
  235   226   163 1
  236   227   161 1
  237   228   139 1
  238   229   139 1
  239   230   153 1
  240   231   152 1
  241   232   150 1
  242   233   149 1
  243   234   148 1
  244   235   162 1
  245   65    153 1
  246   65    174 1
@<TRIPOS>SUBSTRUCTURE
      1 CLA               1 ****               0 ****  **** 
      2 LUT             138 ****               0 ****  **** 
