@<TRIPOS>MOLECULE
Cpptraj generated mol2 file.
  235   246     2     0     0
SMALL
USER_CHARGES


@<TRIPOS>ATOM
      1 CAA        77.5529   57.9576   33.6827 a2         1 CLA     -0.055900
      2 CAB        77.7850   61.6266   42.4438 c8         1 CLA     -0.148500
      3 CAC        71.0336   57.1984   42.3862 a2         1 CLA     -0.012600
      4 CAD        73.2872   55.0785   34.9567 ck         1 CLA      0.398800
      5 NA         76.7579   58.0081   37.0374 ns         1 CLA     -0.225500
      6 CBA        78.7095   57.8508   32.6352 a2         1 CLA     -0.135000
      7 CBB        78.9903   61.7307   43.0241 c0         1 CLA     -0.395200
      8 CBC        70.7865   55.6735   42.3157 a3         1 CLA     -0.037700
      9 CBD        74.6672   55.7257   34.5564 a1         1 CLA     -0.053900
     10 NB         76.6282   59.5516   39.5321 nm         1 CLA     -0.295700
     11 OBD        72.6369   54.3283   34.2453 o2         1 CLA     -0.494600
     12 CGA        79.2915   56.5277   32.2307 c4         1 CLA      0.827000
     13 CGD        75.7344   54.6877   34.0470 c4         1 CLA      0.655300
     14 ND         73.9632   57.0466   37.8032 nm         1 CLA     -0.291600
     15 CED        76.3557   52.3380   33.8943 a3         1 CLA      0.005400
     16 CHA        75.2095   56.5918   35.6437 cs         1 CLA     -0.123800
     17 CHB        78.5727   59.2341   38.0068 aa         1 CLA     -0.291900
     18 CHC        75.3454   59.8224   41.6653 aa         1 CLA     -0.090400
     19 CHD        72.1616   56.9205   39.3703 aa         1 CLA     -0.052000
     20 CMA        80.2556   57.4523   35.9677 a3         1 CLA     -0.230700
     21 CMB        79.8510   61.3419   39.8942 a3         1 CLA     -0.180800
     22 CMC        73.0775   59.0731   43.8168 a3         1 CLA     -0.134000
     23 CMD        70.7337   55.2513   37.2746 a3         1 CLA     -0.141100
     24 C1         80.3980   54.5473   33.1386 a2         1 CLA      0.023000
     25 C1A        76.4795   57.2875   35.9140 ac         1 CLA     -0.015100
     26 C1B        77.9304   59.7945   39.1555 cr         1 CLA      0.054700
     27 C1C        74.2787   58.9560   41.4955 cn         1 CLA     -0.005600
     28 C1D        72.6613   56.7320   38.0976 ap         1 CLA     -0.047300
     29 O1A        79.1988   55.9885   31.1384 o2         1 CLA     -0.610800
     30 O1D        76.6381   54.8780   33.2067 o2         1 CLA     -0.558200
     31 C2         80.8926   53.9929   34.4829 c8         1 CLA     -0.325100
     32 C2A        77.7600   57.2428   34.9860 a1         1 CLA      0.098600
     33 C2B        78.5235   60.7134   40.1024 cb         1 CLA      0.088500
     34 C2C        73.2048   58.6787   42.4291 cb         1 CLA      0.053700
     35 C2D        72.0736   55.9238   37.1130 cb         1 CLA      0.058900
     36 O2A        79.9288   55.9501   33.2756 o1         1 CLA     -0.437200
     37 O2D        75.6112   53.3659   34.6244 o1         1 CLA     -0.357600
     38 C3         81.5779   52.8570   34.6092 c5         1 CLA      0.031200
     39 C3A        78.8317   58.0050   35.8374 a1         1 CLA      0.166800
     40 C3B        77.6157   60.8904   41.1420 cb         1 CLA      0.035000
     41 C3C        72.2988   57.7524   41.7888 cb         1 CLA     -0.089900
     42 C3D        73.0414   55.7527   36.1491 cb         1 CLA     -0.035900
     43 C4         80.9211   51.4922   34.8423 a3         1 CLA     -0.053300
     44 C4A        78.0094   58.4046   37.0512 ac         1 CLA      0.001800
     45 C4B        76.4393   60.0524   40.7868 cn         1 CLA     -0.020900
     46 C4C        72.7606   57.6421   40.4578 cr         1 CLA     -0.044400
     47 C4D        74.1816   56.4552   36.5666 c6         1 CLA     -0.046000
     48 C5         83.0764   53.0269   34.2318 a2         1 CLA     -0.070400
     49 C6         83.7222   54.3806   34.5986 a2         1 CLA      0.043900
     50 C7         83.7527   54.5070   36.1080 a2         1 CLA     -0.150000
     51 C8         84.3813   55.8956   36.5619 a1         1 CLA      0.064200
     52 C9         85.7619   56.1622   35.9675 a3         1 CLA     -0.259300
     53 C10        84.5199   56.1563   38.0776 a2         1 CLA     -0.071900
     54 C11        83.2016   56.1944   38.8234 a2         1 CLA      0.014500
     55 C12        83.3988   56.7350   40.1883 a2         1 CLA     -0.112100
     56 C13        82.0548   56.5899   41.0071 a1         1 CLA      0.089200
     57 C14        80.9422   57.4470   40.2880 a3         1 CLA     -0.239100
     58 C15        82.2462   57.1967   42.4771 a2         1 CLA     -0.102200
     59 C16        82.5178   58.6568   42.7177 a2         1 CLA      0.023900
     60 C17        83.3129   58.7722   44.0072 a2         1 CLA     -0.105700
     61 C18        83.7326   60.2471   44.5304 a1         1 CLA      0.206800
     62 C19        84.8299   60.9228   43.6290 a3         1 CLA     -0.280100
     63 C20        82.5333   61.2516   44.6248 a3         1 CLA     -0.280100
     64 NC         73.9944   58.3156   40.3271 nx         1 CLA     -0.309200
     65 MG         75.2748   58.3444   38.6024 mg         1 CLA      0.895000
     66 HMD3       69.9164   55.9386   37.4229 dc         1 CLA      0.064300
     67 HMD2       70.6027   54.6233   36.4296 dc         1 CLA      0.064300
     68 HMD1       70.6487   54.5956   38.1628 dc         1 CLA      0.064300
     69 HMC3       73.0583   58.0860   44.3375 dc         1 CLA      0.052100
     70 HMC2       73.9503   59.6152   44.1819 dc         1 CLA      0.052100
     71 HMC1       72.0961   59.5598   44.0533 dc         1 CLA      0.052100
     72 HMB3       80.6296   60.9514   40.5324 dc         1 CLA      0.063600
     73 HMB2       80.1612   61.2250   38.8688 dc         1 CLA      0.063600
     74 HMB1       79.7366   62.4505   40.0866 dc         1 CLA      0.063600
     75 HMA3       80.7179   58.2331   36.3835 dc         1 CLA      0.058300
     76 HMA2       80.4582   56.6702   36.6743 dc         1 CLA      0.058300
     77 HMA1       80.7707   57.2287   35.0702 dc         1 CLA      0.058300
     78 HED3       77.3967   52.3122   34.1500 dc         1 CLA      0.079300
     79 HED2       76.0371   51.2753   34.1947 dc         1 CLA      0.079300
     80 HED1       76.2254   52.6437   32.8656 dc         1 CLA      0.079300
     81 HBC3       71.5803   55.1521   42.7535 dc         1 CLA      0.016300
     82 HBC2       69.9921   55.4667   42.9764 dc         1 CLA      0.016300
     83 HBC1       70.5176   55.2497   41.3313 dc         1 CLA      0.016300
     84 HBB2       79.1941   62.2233   43.9874 da         1 CLA      0.183000
     85 HBB1       79.9560   61.4328   42.6230 da         1 CLA      0.183000
     86 HBA2       78.3375   58.3970   31.7779 dc         1 CLA      0.029400
     87 HBA1       79.5662   58.4228   32.8760 dc         1 CLA      0.029400
     88 HAC2       71.0806   57.3723   43.4792 dc         1 CLA      0.029300
     89 HAC1       70.1627   57.8151   42.0854 dc         1 CLA      0.029300
     90 HAA2       76.6345   57.6168   33.2592 dc         1 CLA      0.028700
     91 HAA1       77.3594   59.0083   33.9598 dc         1 CLA      0.028700
     92 H203       82.7620   62.0561   45.3129 dc         1 CLA      0.065600
     93 H202       82.2260   61.5663   43.6133 dc         1 CLA      0.065600
     94 H201       81.7355   60.6412   45.1481 dc         1 CLA      0.065600
     95 H193       84.9567   61.9031   44.1728 dc         1 CLA      0.065600
     96 H192       85.7302   60.3010   43.6079 dc         1 CLA      0.065600
     97 H191       84.5809   61.0738   42.6628 dc         1 CLA      0.065600
     98 H172       82.6954   58.3930   44.7672 dc         1 CLA      0.027600
     99 H171       84.2406   58.2316   43.9921 dc         1 CLA      0.027600
    100 H162       83.0406   59.1099   41.8719 dc         1 CLA      0.002900
    101 H161       81.8017   59.3157   42.8078 dc         1 CLA      0.002900
    102 H152       81.3171   57.0442   42.9851 dc         1 CLA      0.029100
    103 H151       82.9359   56.6619   43.0707 dc         1 CLA      0.029100
    104 H143       81.3961   58.2341   39.7342 dc         1 CLA      0.063600
    105 H142       80.4815   56.8358   39.4987 dc         1 CLA      0.063600
    106 H141       80.2144   57.6419   41.0907 dc         1 CLA      0.063600
    107 H122       83.9987   56.1323   40.7851 dc         1 CLA      0.032500
    108 H121       83.8433   57.7695   40.1696 dc         1 CLA      0.032500
    109 H112       82.4840   56.6961   38.2572 dc         1 CLA      0.006600
    110 H111       82.9121   55.1259   39.0156 dc         1 CLA      0.006600
    111 H102       85.1322   55.3152   38.4931 dc         1 CLA      0.024100
    112 H101       85.1073   57.0493   38.3632 dc         1 CLA      0.024100
    113 HHD        71.2484   56.4705   39.6966 da         1 CLA      0.174300
    114 HHC        75.4696   60.2363   42.7020 da         1 CLA      0.136800
    115 HHB        79.6043   59.3937   37.8898 da         1 CLA      0.138300
    116 HBD        74.5021   56.4837   33.8049 dc         1 CLA      0.107700
    117 HAB        76.8820   61.9785   42.9342 da         1 CLA      0.155200
    118 H93        86.2181   57.1480   36.2552 dc         1 CLA      0.069500
    119 H92        86.4050   55.3405   36.2450 dc         1 CLA      0.069500
    120 H91        85.8306   56.3221   34.9048 dc         1 CLA      0.069500
    121 H8         83.7653   56.7604   36.0878 dc         1 CLA      0.029300
    122 H72        82.7709   54.4344   36.4812 dc         1 CLA      0.044400
    123 H71        84.3126   53.6934   36.5196 dc         1 CLA      0.044400
    124 H62        84.7515   54.4026   34.2254 dc         1 CLA      0.015600
    125 H61        83.1839   55.1838   34.0974 dc         1 CLA      0.015600
    126 H52        83.6271   52.1035   34.5632 dc         1 CLA      0.033200
    127 H51        82.9593   53.0015   33.1905 dc         1 CLA      0.033200
    128 H43        79.9137   51.7363   34.6582 dc         1 CLA      0.037000
    129 H42        81.3478   50.8094   34.1052 dc         1 CLA      0.037000
    130 H41        81.1865   51.1699   35.8235 dc         1 CLA      0.037000
    131 H3A        78.9392   59.0088   35.4075 dc         1 CLA      0.041100
    132 H2A        78.0974   56.2559   34.9267 dc         1 CLA      0.083100
    133 H2         80.5781   54.5980   35.3649 da         1 CLA      0.180900
    134 H18        84.1103   60.0580   45.5034 dc         1 CLA     -0.003900
    135 H13        81.7058   55.5514   40.9982 dc         1 CLA      0.019700
    136 H12        79.6211   53.8941   32.8340 dc         1 CLA      0.120400
    137 H11        81.1375   54.4548   32.3610 dc         1 CLA      0.120400
    138 C1         67.6805   60.9337   50.1453 Z1         2 LUT      0.509236
    139 C2         67.6889   62.3143   51.0119 Z2         2 LUT     -0.434695
    140 C3         66.3134   62.8587   51.2254 Z3         2 LUT      0.437453
    141 O3         66.5511   64.1670   51.6583 S1         2 LUT     -0.547129
    142 C4         65.5108   62.8034   49.9066 Z4         2 LUT     -0.468603
    143 C5         66.1458   62.2768   48.6855 Z5         2 LUT      0.279246
    144 C6         67.0917   61.3135   48.7361 Z6         2 LUT     -0.305473
    145 C7         67.9278   61.0852   47.5230 Z7         2 LUT      0.069402
    146 C8         68.6541   61.8442   46.6942 Z8         2 LUT     -0.191631
    147 C9         69.3687   61.4466   45.4685 Z9         2 LUT      0.196698
    148 C10        70.2934   62.2985   44.9507 Y1         2 LUT     -0.208611
    149 C11        71.0290   62.0855   43.6966 Y2         2 LUT      0.030784
    150 C12        71.9921   62.9297   43.2080 Y3         2 LUT     -0.220316
    151 C13        72.9113   62.8332   42.0405 Y4         2 LUT      0.215937
    152 C14        74.0887   63.5881   41.9965 Y5         2 LUT     -0.185793
    153 C15        75.1551   63.5709   41.0103 Y6         2 LUT     -0.057835
    154 C16        66.7036   59.9137   50.7711 Y7         2 LUT     -0.405615
    155 C17        69.1860   60.4964   50.0644 Y7         2 LUT     -0.405615
    156 C18        65.7243   63.0768   47.4426 Y9         2 LUT     -0.369639
    157 C19        68.9990   60.1892   44.7948 W1         2 LUT     -0.333362
    158 C20        72.3194   62.2169   40.8142 W2         2 LUT     -0.323439
    159 C21        86.5933   65.1865   34.6225 Z1         2 LUT      0.406104
    160 C22        87.3079   64.6321   33.3207 Z2         2 LUT     -0.404965
    161 C23        87.3656   65.5708   32.1472 Z3         2 LUT      0.391255
    162 O23        88.0115   64.9411   31.0299 S1         2 LUT     -0.528210
    163 C24        85.9452   66.1098   31.9859 W6         2 LUT     -0.258361
    164 C25        84.9895   66.1732   32.8631 Z5         2 LUT      0.133546
    165 C26        85.1186   65.5923   34.2686 W8         2 LUT     -0.147008
    166 C27        84.3070   66.3127   35.3486 Z7         2 LUT      0.023843
    167 C28        83.2736   65.8010   36.0977 Z8         2 LUT     -0.216987
    168 C29        82.5922   66.2887   37.2835 Z9         2 LUT      0.206524
    169 C30        81.4121   65.6874   37.5826 Y1         2 LUT     -0.215556
    170 C31        80.6411   65.8066   38.8451 Y2         2 LUT      0.025142
    171 C32        79.4113   65.1468   38.9845 Y3         2 LUT     -0.212209
    172 C33        78.4955   65.1673   40.1783 Y4         2 LUT      0.240937
    173 C34        77.4245   64.3759   40.1489 Y5         2 LUT     -0.218862
    174 C35        76.2825   64.3212   41.0686 Y6         2 LUT     -0.023547
    175 C36        87.4499   66.3867   35.0554 Y7         2 LUT     -0.393485
    176 C37        86.6684   64.1387   35.8021 Y7         2 LUT     -0.393485
    177 C38        83.6968   66.8272   32.5237 Y9         2 LUT     -0.387526
    178 C39        83.3106   67.3008   38.2585 W1         2 LUT     -0.322618
    179 C40        79.0365   65.5754   41.5506 W2         2 LUT     -0.358472
    180 H403       79.2868   66.6396   41.6714 R7         2 LUT      0.097720
    181 H402       78.3662   65.2381   42.3613 R7         2 LUT      0.097720
    182 H401       79.9986   65.0803   41.7101 R7         2 LUT      0.097720
    183 H393       84.3390   67.4269   38.0508 R4         2 LUT      0.082505
    184 H392       82.9168   68.2778   38.0452 R4         2 LUT      0.082505
    185 H391       83.0985   67.1056   39.3238 R4         2 LUT      0.082505
    186 H383       82.9875   67.0217   33.3216 R1         2 LUT      0.104030
    187 H382       83.8894   67.8440   32.0898 R1         2 LUT      0.104030
    188 H381       83.1419   66.2707   31.7769 R1         2 LUT      0.104030
    189 H373       87.6945   63.8901   36.0513 T4         2 LUT      0.089537
    190 H372       86.1922   64.5665   36.7349 T4         2 LUT      0.089537
    191 H371       86.2956   63.1642   35.4733 T4         2 LUT      0.089537
    192 H363       87.2711   67.2193   34.3941 T4         2 LUT      0.089537
    193 H362       87.1017   66.6299   36.0243 T4         2 LUT      0.089537
    194 H361       88.4794   66.0957   35.1163 T4         2 LUT      0.089537
    195 H222       88.3744   64.3951   33.4762 U2         2 LUT      0.127376
    196 H221       86.9054   63.6567   33.0069 U2         2 LUT      0.127376
    197 H203       72.5564   61.1942   40.7355 R7         2 LUT      0.087068
    198 H202       71.2453   62.3154   40.7371 R7         2 LUT      0.087068
    199 H201       72.5970   62.5493   39.8159 R7         2 LUT      0.087068
    200 H193       69.4377   59.8902   43.8476 R4         2 LUT      0.089716
    201 H192       69.1314   59.2738   45.3771 R4         2 LUT      0.089716
    202 H191       67.9497   60.1698   44.5418 R4         2 LUT      0.089716
    203 H183       64.6577   63.0967   47.5007 R1         2 LUT      0.094572
    204 H182       65.9987   64.1824   47.4954 R1         2 LUT      0.094572
    205 H181       65.8978   62.5094   46.5634 R1         2 LUT      0.094572
    206 H173       69.6032   60.3104   51.0373 T4         2 LUT      0.093752
    207 H172       69.2995   59.5685   49.4908 T4         2 LUT      0.093752
    208 H171       69.8157   61.2670   49.6007 T4         2 LUT      0.093752
    209 H163       65.6577   60.2993   50.9383 T4         2 LUT      0.093752
    210 H162       66.6267   59.0524   50.0945 T4         2 LUT      0.093752
    211 H161       67.0749   59.6502   51.7544 T4         2 LUT      0.093752
    212 HO3        65.7908   64.5251   52.2745 Q1         2 LUT      0.300121
    213 H8         68.9380   62.8892   46.8341 U7         2 LUT      0.080784
    214 H7         67.9815   60.0360   47.2415 U6         2 LUT      0.042190
    215 H42        64.6000   62.3266   50.1587 U5         2 LUT      0.145166
    216 H41        64.9613   63.7256   49.6619 U5         2 LUT      0.145166
    217 H35        76.3410   64.9044   41.9848 T3         2 LUT      0.077919
    218 H34        77.1574   63.7142   39.2818 T2         2 LUT      0.073626
    219 H32        79.2523   64.4616   38.1072 T1         2 LUT      0.092510
    220 H31        81.0959   66.4581   39.6481 U9         2 LUT      0.070048
    221 H30        80.9359   65.0860   36.8083 U8         2 LUT      0.085442
    222 H3         65.7713   62.2653   52.0340 U3         2 LUT     -0.031596
    223 H28        82.8676   64.8398   35.6837 U7         2 LUT      0.084728
    224 H27        84.6263   67.3161   35.6181 U6         2 LUT      0.087291
    225 H26        84.6311   64.7407   33.8603 Q6         2 LUT      0.075325
    226 H24        85.6054   66.4110   30.9864 Q5         2 LUT      0.094482
    227 H23        87.9355   66.4232   32.5203 U3         2 LUT     -0.024869
    228 H22        68.2112   62.1096   51.9836 U2         2 LUT      0.127376
    229 H21        68.2759   62.9841   50.4890 U2         2 LUT      0.127376
    230 H15        75.0814   62.9376   40.1570 T3         2 LUT      0.093200
    231 H14        74.3114   64.1451   42.8613 T2         2 LUT      0.068865
    232 H12        72.2396   63.7063   43.7929 T1         2 LUT      0.095507
    233 H11        70.8167   61.2109   43.1038 U9         2 LUT      0.068930
    234 H10        70.5750   63.1875   45.4810 U8         2 LUT      0.083911
    235 H1         87.3867   64.5851   30.3606 Q1         2 LUT      0.297311
@<TRIPOS>BOND
    1     6     1 1
    2     7     2 1
    3     8     3 1
    4     9     4 1
    5    11     4 1
    6    12     6 1
    7    13     9 1
    8    16     9 1
    9    25     5 1
   10    25    16 1
   11    26    10 1
   12    26    17 1
   13    27    18 1
   14    28    14 1
   15    28    19 1
   16    29    12 1
   17    30    13 1
   18    31    24 1
   19    32     1 1
   20    32    25 1
   21    33    21 1
   22    33    26 1
   23    34    22 1
   24    34    27 1
   25    35    23 1
   26    35    28 1
   27    36    12 1
   28    36    24 1
   29    37    13 1
   30    37    15 1
   31    38    31 1
   32    39    20 1
   33    39    32 1
   34    40     2 1
   35    40    33 1
   36    41     3 1
   37    41    34 1
   38    42     4 1
   39    42    35 1
   40    43    38 1
   41    44     5 1
   42    44    17 1
   43    44    39 1
   44    45    10 1
   45    45    18 1
   46    45    40 1
   47    46    19 1
   48    46    41 1
   49    47    14 1
   50    47    16 1
   51    47    42 1
   52    48    38 1
   53    49    48 1
   54    50    49 1
   55    51    50 1
   56    52    51 1
   57    53    51 1
   58    54    53 1
   59    55    54 1
   60    56    55 1
   61    57    56 1
   62    58    56 1
   63    59    58 1
   64    60    59 1
   65    61    60 1
   66    62    61 1
   67    63    61 1
   68    64    27 1
   69    64    46 1
   70    65     5 1
   71    65    10 1
   72    65    64 1
   73    65    14 1
   74    66    23 1
   75    67    23 1
   76    68    23 1
   77    69    22 1
   78    70    22 1
   79    71    22 1
   80    72    21 1
   81    73    21 1
   82    74    21 1
   83    75    20 1
   84    76    20 1
   85    77    20 1
   86    78    15 1
   87    79    15 1
   88    80    15 1
   89    81     8 1
   90    82     8 1
   91    83     8 1
   92    84     7 1
   93    85     7 1
   94    86     6 1
   95    87     6 1
   96    88     3 1
   97    89     3 1
   98    90     1 1
   99    91     1 1
  100    92    63 1
  101    93    63 1
  102    94    63 1
  103    95    62 1
  104    96    62 1
  105    97    62 1
  106    98    60 1
  107    99    60 1
  108   100    59 1
  109   101    59 1
  110   102    58 1
  111   103    58 1
  112   104    57 1
  113   105    57 1
  114   106    57 1
  115   107    55 1
  116   108    55 1
  117   109    54 1
  118   110    54 1
  119   111    53 1
  120   112    53 1
  121   113    19 1
  122   114    18 1
  123   115    17 1
  124   116     9 1
  125   117     2 1
  126   118    52 1
  127   119    52 1
  128   120    52 1
  129   121    51 1
  130   122    50 1
  131   123    50 1
  132   124    49 1
  133   125    49 1
  134   126    48 1
  135   127    48 1
  136   128    43 1
  137   129    43 1
  138   130    43 1
  139   131    39 1
  140   132    32 1
  141   133    31 1
  142   134    61 1
  143   135    56 1
  144   136    24 1
  145   137    24 1
  146   139   138 1
  147   140   139 1
  148   141   140 1
  149   142   140 1
  150   143   142 1
  151   144   138 1
  152   144   143 1
  153   145   144 1
  154   146   145 1
  155   147   146 1
  156   148   147 1
  157   149   148 1
  158   150   149 1
  159   151   150 1
  160   152   151 1
  161   153   152 1
  162   154   138 1
  163   155   138 1
  164   156   143 1
  165   157   147 1
  166   158   151 1
  167   160   159 1
  168   161   160 1
  169   162   161 1
  170   163   161 1
  171   164   163 1
  172   165   159 1
  173   165   164 1
  174   166   165 1
  175   167   166 1
  176   168   167 1
  177   169   168 1
  178   170   169 1
  179   171   170 1
  180   172   171 1
  181   173   172 1
  182   174   153 1
  183   174   173 1
  184   175   159 1
  185   176   159 1
  186   177   164 1
  187   178   168 1
  188   179   172 1
  189   180   179 1
  190   181   179 1
  191   182   179 1
  192   183   178 1
  193   184   178 1
  194   185   178 1
  195   186   177 1
  196   187   177 1
  197   188   177 1
  198   189   176 1
  199   190   176 1
  200   191   176 1
  201   192   175 1
  202   193   175 1
  203   194   175 1
  204   195   160 1
  205   196   160 1
  206   197   158 1
  207   198   158 1
  208   199   158 1
  209   200   157 1
  210   201   157 1
  211   202   157 1
  212   203   156 1
  213   204   156 1
  214   205   156 1
  215   206   155 1
  216   207   155 1
  217   208   155 1
  218   209   154 1
  219   210   154 1
  220   211   154 1
  221   212   141 1
  222   213   146 1
  223   214   145 1
  224   215   142 1
  225   216   142 1
  226   217   174 1
  227   218   173 1
  228   219   171 1
  229   220   170 1
  230   221   169 1
  231   222   140 1
  232   223   167 1
  233   224   166 1
  234   225   165 1
  235   226   163 1
  236   227   161 1
  237   228   139 1
  238   229   139 1
  239   230   153 1
  240   231   152 1
  241   232   150 1
  242   233   149 1
  243   234   148 1
  244   235   162 1
  245   65    153 1
  246   65    174 1
@<TRIPOS>SUBSTRUCTURE
      1 CLA               1 ****               0 ****  **** 
      2 LUT             138 ****               0 ****  **** 
