@<TRIPOS>MOLECULE
Cpptraj generated mol2 file.
  235   246     2     0     0
SMALL
USER_CHARGES


@<TRIPOS>ATOM
      1 CAA        78.3448   57.7015   35.4509 a2         1 CLA     -0.055900
      2 CAB        77.7328   61.3310   44.5012 c8         1 CLA     -0.148500
      3 CAC        71.0185   56.7887   43.5322 a2         1 CLA     -0.012600
      4 CAD        74.1757   55.0432   36.3896 ck         1 CLA      0.398800
      5 NA         77.0901   58.0758   38.8165 ns         1 CLA     -0.225500
      6 CBA        79.5414   57.5320   34.5048 a2         1 CLA     -0.135000
      7 CBB        78.9088   61.3965   45.2397 c0         1 CLA     -0.395200
      8 CBC        71.1735   55.3053   43.3703 a3         1 CLA     -0.037700
      9 CBD        75.6546   55.6444   36.2325 a1         1 CLA     -0.053900
     10 NB         76.6916   59.5224   41.4260 nm         1 CLA     -0.295700
     11 OBD        73.5635   54.2816   35.6309 o2         1 CLA     -0.494600
     12 CGA        80.0736   56.0980   34.4351 c4         1 CLA      0.827000
     13 CGD        76.7240   54.5638   36.3123 c4         1 CLA      0.655300
     14 ND         74.2069   57.1623   39.2763 nm         1 CLA     -0.291600
     15 CED        77.6916   52.7123   37.4922 a3         1 CLA      0.005400
     16 CHA        75.8715   56.5691   37.3938 cs         1 CLA     -0.123800
     17 CHB        78.6525   59.5523   39.9307 aa         1 CLA     -0.291900
     18 CHC        75.3371   59.6596   43.4381 aa         1 CLA     -0.090400
     19 CHD        72.2300   57.0038   40.6470 aa         1 CLA     -0.052000
     20 CMA        80.6287   57.6845   38.3930 a3         1 CLA     -0.230700
     21 CMB        79.8487   61.5843   42.0127 a3         1 CLA     -0.180800
     22 CMC        72.9230   58.5923   45.4370 a3         1 CLA     -0.134000
     23 CMD        71.3394   54.8615   38.4444 a3         1 CLA     -0.141100
     24 C1         81.5484   54.5550   35.6085 a2         1 CLA      0.023000
     25 C1A        77.0377   57.2896   37.7383 ac         1 CLA     -0.015100
     26 C1B        77.9592   59.8915   41.1033 cr         1 CLA      0.054700
     27 C1C        74.1970   58.7903   43.1492 cn         1 CLA     -0.005600
     28 C1D        72.8889   56.7596   39.4473 ap         1 CLA     -0.047300
     29 O1A        79.9162   55.2887   33.5058 o2         1 CLA     -0.610800
     30 O1D        77.4871   54.3620   35.3692 o2         1 CLA     -0.558200
     31 C2         82.1948   54.3749   36.9864 c8         1 CLA     -0.325100
     32 C2A        78.4571   57.2287   36.9990 a1         1 CLA      0.098600
     33 C2B        78.5257   60.7804   42.0911 cb         1 CLA      0.088500
     34 C2C        73.0928   58.3330   43.9610 cb         1 CLA      0.053700
     35 C2D        72.5433   55.7557   38.4650 cb         1 CLA      0.058900
     36 O2A        80.8565   55.8697   35.5019 o1         1 CLA     -0.437200
     37 O2D        76.7573   53.8895   37.4711 o1         1 CLA     -0.357600
     38 C3         82.7811   53.2749   37.5618 c5         1 CLA      0.031200
     39 C3A        79.3261   58.2402   37.8638 a1         1 CLA      0.166800
     40 C3B        77.6566   60.7276   43.1565 cb         1 CLA      0.035000
     41 C3C        72.2772   57.6128   43.1041 cb         1 CLA     -0.089900
     42 C3D        73.6623   55.7225   37.6213 cb         1 CLA     -0.035900
     43 C4         81.9974   52.4591   38.5987 a3         1 CLA     -0.053300
     44 C4A        78.3409   58.6236   38.9546 ac         1 CLA      0.001800
     45 C4B        76.4609   60.0305   42.6676 cn         1 CLA     -0.020900
     46 C4C        72.7842   57.5614   41.8124 cr         1 CLA     -0.044400
     47 C4D        74.6818   56.5536   38.1386 c6         1 CLA     -0.046000
     48 C5         84.1723   52.8328   37.4166 a2         1 CLA     -0.070400
     49 C6         85.2511   53.8964   37.5343 a2         1 CLA      0.043900
     50 C7         85.2366   54.5052   38.9112 a2         1 CLA     -0.150000
     51 C8         86.2707   55.6574   39.0845 a1         1 CLA      0.064200
     52 C9         87.7476   55.1502   38.9948 a3         1 CLA     -0.259300
     53 C10        86.0745   56.3401   40.4100 a2         1 CLA     -0.071900
     54 C11        84.8177   57.1531   40.7596 a2         1 CLA      0.014500
     55 C12        85.2213   57.9013   42.0902 a2         1 CLA     -0.112100
     56 C13        85.5063   57.1273   43.4039 a1         1 CLA      0.089200
     57 C14        84.4152   56.0244   43.6516 a3         1 CLA     -0.239100
     58 C15        85.5829   57.9474   44.6963 a2         1 CLA     -0.102200
     59 C16        84.3207   58.6050   45.0917 a2         1 CLA      0.023900
     60 C17        84.4291   59.5266   46.3538 a2         1 CLA     -0.105700
     61 C18        83.1681   60.3764   46.6430 a1         1 CLA      0.206800
     62 C19        82.0218   59.4466   47.0339 a3         1 CLA     -0.280100
     63 C20        83.3984   61.4581   47.6963 a3         1 CLA     -0.280100
     64 NC         74.0136   58.2410   41.8614 nx         1 CLA     -0.309200
     65 MG         75.4931   58.3822   40.3283 mg         1 CLA      0.895000
     66 HMD3       70.4407   55.4038   38.1751 dc         1 CLA      0.064300
     67 HMD2       71.6374   53.9678   37.9138 dc         1 CLA      0.064300
     68 HMD1       71.3213   54.4767   39.4697 dc         1 CLA      0.064300
     69 HMC3       73.7793   58.1314   45.9196 dc         1 CLA      0.052100
     70 HMC2       72.9082   59.6766   45.5672 dc         1 CLA      0.052100
     71 HMC1       72.1450   57.9379   45.8727 dc         1 CLA      0.052100
     72 HMB3       80.6372   60.8800   42.2366 dc         1 CLA      0.063600
     73 HMB2       80.0017   62.0734   41.1042 dc         1 CLA      0.063600
     74 HMB1       79.8493   62.3111   42.7701 dc         1 CLA      0.063600
     75 HMA3       81.2211   57.4063   37.4586 dc         1 CLA      0.058300
     76 HMA2       81.0881   58.4019   39.1172 dc         1 CLA      0.058300
     77 HMA1       80.4562   56.7641   38.9842 dc         1 CLA      0.058300
     78 HED3       78.7073   52.8333   37.2494 dc         1 CLA      0.079300
     79 HED2       77.6701   52.2608   38.5076 dc         1 CLA      0.079300
     80 HED1       77.2671   51.9347   36.8331 dc         1 CLA      0.079300
     81 HBC3       71.2317   55.1063   42.2845 dc         1 CLA      0.016300
     82 HBC2       72.0055   54.9430   43.9378 dc         1 CLA      0.016300
     83 HBC1       70.3286   54.7190   43.7262 dc         1 CLA      0.016300
     84 HBB2       78.8540   61.8982   46.2279 da         1 CLA      0.183000
     85 HBB1       79.9292   60.9837   44.9296 da         1 CLA      0.183000
     86 HBA2       79.1721   57.8897   33.5665 dc         1 CLA      0.029400
     87 HBA1       80.2815   58.2121   34.8561 dc         1 CLA      0.029400
     88 HAC2       70.7599   57.0266   44.5696 dc         1 CLA      0.029300
     89 HAC1       70.1489   57.0669   42.9581 dc         1 CLA      0.029300
     90 HAA2       77.6403   57.0051   34.9218 dc         1 CLA      0.028700
     91 HAA1       77.9535   58.7131   35.3571 dc         1 CLA      0.028700
     92 H203       82.3871   61.8540   47.9321 dc         1 CLA      0.065600
     93 H202       83.7734   61.1898   48.6981 dc         1 CLA      0.065600
     94 H201       83.9742   62.1906   47.1649 dc         1 CLA      0.065600
     95 H193       82.3423   58.8344   47.8839 dc         1 CLA      0.065600
     96 H192       81.1525   59.9646   47.4134 dc         1 CLA      0.065600
     97 H191       81.6968   58.7641   46.1964 dc         1 CLA      0.065600
     98 H172       84.8266   58.9357   47.1806 dc         1 CLA      0.027600
     99 H171       85.2095   60.2371   46.1459 dc         1 CLA      0.027600
    100 H162       83.9508   59.3257   44.3181 dc         1 CLA      0.002900
    101 H161       83.5630   57.8731   45.3084 dc         1 CLA      0.002900
    102 H152       85.8953   57.4171   45.5840 dc         1 CLA      0.029100
    103 H151       86.2751   58.7553   44.5270 dc         1 CLA      0.029100
    104 H143       83.4660   56.3813   43.3620 dc         1 CLA      0.063600
    105 H142       84.6241   55.1726   43.0896 dc         1 CLA      0.063600
    106 H141       84.4018   55.7458   44.6385 dc         1 CLA      0.063600
    107 H122       85.9539   58.6797   41.9476 dc         1 CLA      0.032500
    108 H121       84.3852   58.5536   42.2699 dc         1 CLA      0.032500
    109 H112       84.5831   57.8796   39.9929 dc         1 CLA      0.006600
    110 H111       83.9834   56.4958   40.7870 dc         1 CLA      0.006600
    111 H102       85.9809   55.5673   41.1923 dc         1 CLA      0.024100
    112 H101       86.9844   56.9568   40.6132 dc         1 CLA      0.024100
    113 HHD        71.2473   56.5649   40.6869 da         1 CLA      0.174300
    114 HHC        75.4276   60.2575   44.3808 da         1 CLA      0.136800
    115 HHB        79.6255   60.0177   39.7830 da         1 CLA      0.138300
    116 HBD        75.6482   56.1701   35.2659 dc         1 CLA      0.107700
    117 HAB        76.8503   61.7316   44.9769 da         1 CLA      0.155200
    118 H93        88.5131   55.9448   38.8687 dc         1 CLA      0.069500
    119 H92        87.9982   54.5928   39.8786 dc         1 CLA      0.069500
    120 H91        87.7838   54.4386   38.1568 dc         1 CLA      0.069500
    121 H8         86.2047   56.3543   38.2976 dc         1 CLA      0.029300
    122 H72        84.2653   54.9329   39.1467 dc         1 CLA      0.044400
    123 H71        85.5949   53.7690   39.6091 dc         1 CLA      0.044400
    124 H62        86.1016   53.3229   37.2889 dc         1 CLA      0.015600
    125 H61        85.0330   54.7218   36.7786 dc         1 CLA      0.015600
    126 H52        84.3346   52.0578   38.1263 dc         1 CLA      0.033200
    127 H51        84.1462   52.5140   36.3692 dc         1 CLA      0.033200
    128 H43        81.0255   52.9256   38.6285 dc         1 CLA      0.037000
    129 H42        81.8765   51.3912   38.2934 dc         1 CLA      0.037000
    130 H41        82.5737   52.5240   39.5406 dc         1 CLA      0.037000
    131 H3A        79.5708   59.1061   37.2863 dc         1 CLA      0.041100
    132 H2A        78.8405   56.2320   37.1242 dc         1 CLA      0.083100
    133 H2         82.3660   55.2413   37.6507 da         1 CLA      0.180900
    134 H18        82.8440   60.8970   45.7256 dc         1 CLA     -0.003900
    135 H13        86.5355   56.8221   43.4018 dc         1 CLA      0.019700
    136 H12        80.9153   53.6466   35.3630 dc         1 CLA      0.120400
    137 H11        82.2518   54.6515   34.7901 dc         1 CLA      0.120400
    138 C1         68.0871   60.9146   50.6169 Z1         2 LUT      0.509236
    139 C2         66.7166   60.7402   51.3273 Z2         2 LUT     -0.434695
    140 C3         65.8443   62.0008   51.4992 Z3         2 LUT      0.437453
    141 O3         66.1434   62.7754   52.7206 S1         2 LUT     -0.547129
    142 C4         65.8430   62.8850   50.2262 Z4         2 LUT     -0.468603
    143 C5         66.8007   62.5785   49.0769 Z5         2 LUT      0.279246
    144 C6         67.8092   61.6629   49.2334 Z6         2 LUT     -0.305473
    145 C7         68.4108   60.9642   48.0107 Z7         2 LUT      0.069402
    146 C8         69.0845   61.7476   47.1020 Z8         2 LUT     -0.191631
    147 C9         69.7223   61.2172   45.8720 Z9         2 LUT      0.196698
    148 C10        70.4864   62.0403   45.0781 Y1         2 LUT     -0.208611
    149 C11        71.2166   61.8758   43.9154 Y2         2 LUT      0.030784
    150 C12        72.2309   62.7860   43.5778 Y3         2 LUT     -0.220316
    151 C13        73.2379   62.7468   42.5668 Y4         2 LUT      0.215937
    152 C14        74.3702   63.5637   42.6026 Y5         2 LUT     -0.185793
    153 C15        75.4540   63.6686   41.7150 Y6         2 LUT     -0.057835
    154 C16        68.9057   59.5977   50.6344 Y7         2 LUT     -0.405615
    155 C17        68.9360   61.8443   51.5770 Y7         2 LUT     -0.405615
    156 C18        66.2867   63.1591   47.7736 Y9         2 LUT     -0.369639
    157 C19        69.4997   59.7296   45.5251 W1         2 LUT     -0.333362
    158 C20        72.9074   61.7264   41.5274 W2         2 LUT     -0.323439
    159 C21        86.8017   64.6199   35.6775 Z1         2 LUT      0.406104
    160 C22        87.5309   64.2062   34.4182 Z2         2 LUT     -0.404965
    161 C23        87.7298   65.2956   33.3904 Z3         2 LUT      0.391255
    162 O23        88.5109   64.8683   32.2429 S1         2 LUT     -0.528210
    163 C24        86.3599   65.8456   33.1132 W6         2 LUT     -0.258361
    164 C25        85.2807   65.7618   33.9539 Z5         2 LUT      0.133546
    165 C26        85.3467   65.0833   35.2819 W8         2 LUT     -0.147008
    166 C27        84.6657   65.8551   36.3880 Z7         2 LUT      0.023843
    167 C28        83.7747   65.2786   37.2512 Z8         2 LUT     -0.216987
    168 C29        82.9383   65.7954   38.3760 Z9         2 LUT      0.206524
    169 C30        82.0317   64.9835   39.0157 Y1         2 LUT     -0.215556
    170 C31        81.1914   65.3837   40.0763 Y2         2 LUT      0.025142
    171 C32        79.9627   64.8506   40.1480 Y3         2 LUT     -0.212209
    172 C33        78.9641   65.1985   41.1393 Y4         2 LUT      0.240937
    173 C34        77.7413   64.4271   41.1728 Y5         2 LUT     -0.218862
    174 C35        76.5404   64.4310   41.9623 Y6         2 LUT     -0.023547
    175 C36        87.5547   65.7838   36.3486 Y7         2 LUT     -0.393485
    176 C37        86.9057   63.3358   36.6007 Y7         2 LUT     -0.393485
    177 C38        84.0196   66.4980   33.5857 Y9         2 LUT     -0.387526
    178 C39        83.2649   67.1986   38.8334 W1         2 LUT     -0.322618
    179 C40        79.2661   66.3815   42.0531 W2         2 LUT     -0.358472
    180 H403       79.2647   67.3317   41.6007 R7         2 LUT      0.097720
    181 H402       78.5073   66.4694   42.8404 R7         2 LUT      0.097720
    182 H401       80.1952   66.2559   42.4787 R7         2 LUT      0.097720
    183 H393       82.8381   67.4041   39.7530 R4         2 LUT      0.082505
    184 H392       84.3456   67.2156   38.9003 R4         2 LUT      0.082505
    185 H391       82.9256   67.9703   38.2133 R4         2 LUT      0.082505
    186 H383       83.5382   67.0927   34.3852 R1         2 LUT      0.104030
    187 H382       84.1973   67.1705   32.7211 R1         2 LUT      0.104030
    188 H381       83.1365   65.8536   33.2881 R1         2 LUT      0.104030
    189 H373       86.4809   63.4174   37.6248 T4         2 LUT      0.089537
    190 H372       86.4567   62.5199   36.1525 T4         2 LUT      0.089537
    191 H371       87.8877   62.9342   36.7205 T4         2 LUT      0.089537
    192 H363       88.6137   65.6848   36.3846 T4         2 LUT      0.089537
    193 H362       87.4311   66.8015   35.8828 T4         2 LUT      0.089537
    194 H361       87.2972   65.8441   37.3799 T4         2 LUT      0.089537
    195 H222       88.4928   63.8079   34.6199 U2         2 LUT      0.127376
    196 H221       87.1100   63.3020   33.8552 U2         2 LUT      0.127376
    197 H203       73.5880   61.5731   40.6663 R7         2 LUT      0.087068
    198 H202       72.7765   60.7274   41.9881 R7         2 LUT      0.087068
    199 H201       71.9280   61.9257   41.0964 R7         2 LUT      0.087068
    200 H193       69.9738   59.1056   46.3351 R4         2 LUT      0.089716
    201 H192       68.5224   59.4618   45.1662 R4         2 LUT      0.089716
    202 H191       70.1248   59.4075   44.6870 R4         2 LUT      0.089716
    203 H183       67.0263   63.8418   47.3120 R1         2 LUT      0.094572
    204 H182       66.1585   62.3724   47.0499 R1         2 LUT      0.094572
    205 H181       65.2868   63.6185   47.9246 R1         2 LUT      0.094572
    206 H173       68.5042   62.8656   51.6562 T4         2 LUT      0.093752
    207 H172       69.1358   61.5183   52.6158 T4         2 LUT      0.093752
    208 H171       69.9406   61.9976   51.1069 T4         2 LUT      0.093752
    209 H163       68.3546   58.7306   50.1642 T4         2 LUT      0.093752
    210 H162       69.8603   59.6894   50.1434 T4         2 LUT      0.093752
    211 H161       69.1479   59.2789   51.6726 T4         2 LUT      0.093752
    212 HO3        65.9198   62.3104   53.5280 Q1         2 LUT      0.300121
    213 H8         69.1929   62.8685   47.2746 U7         2 LUT      0.080784
    214 H7         68.5132   59.8603   47.9508 U6         2 LUT      0.042190
    215 H42        64.7939   62.9308   49.8754 U5         2 LUT      0.145166
    216 H41        65.8822   63.8512   50.6559 U5         2 LUT      0.145166
    217 H35        76.5658   65.0437   42.8753 T3         2 LUT      0.077919
    218 H34        77.6773   63.7475   40.3211 T2         2 LUT      0.073626
    219 H32        79.5900   64.2677   39.3632 T1         2 LUT      0.092510
    220 H31        81.5173   66.1160   40.8145 U9         2 LUT      0.070048
    221 H30        81.7965   63.9915   38.6704 U8         2 LUT      0.085442
    222 H3         64.8709   61.4375   51.5462 U3         2 LUT     -0.031596
    223 H28        83.6646   64.2098   37.0713 U7         2 LUT      0.084728
    224 H27        84.8577   66.9315   36.4481 U6         2 LUT      0.087291
    225 H26        84.6367   64.2982   35.0751 Q6         2 LUT      0.075325
    226 H24        86.2435   66.3880   32.1553 Q5         2 LUT      0.094482
    227 H23        88.3124   66.1073   33.9023 U3         2 LUT     -0.024869
    228 H22        66.1078   59.9647   50.8555 U2         2 LUT      0.127376
    229 H21        66.8948   60.2789   52.3052 U2         2 LUT      0.127376
    230 H15        75.4456   63.1010   40.7478 T3         2 LUT      0.093200
    231 H14        74.4237   64.3092   43.3569 T2         2 LUT      0.068865
    232 H12        72.4842   63.4849   44.4021 T1         2 LUT      0.095507
    233 H11        71.1083   60.9372   43.4067 U9         2 LUT      0.068930
    234 H10        70.5940   63.0460   45.5019 U8         2 LUT      0.083911
    235 H1         88.0020   64.3175   31.6293 Q1         2 LUT      0.297311
@<TRIPOS>BOND
    1     6     1 1
    2     7     2 1
    3     8     3 1
    4     9     4 1
    5    11     4 1
    6    12     6 1
    7    13     9 1
    8    16     9 1
    9    25     5 1
   10    25    16 1
   11    26    10 1
   12    26    17 1
   13    27    18 1
   14    28    14 1
   15    28    19 1
   16    29    12 1
   17    30    13 1
   18    31    24 1
   19    32     1 1
   20    32    25 1
   21    33    21 1
   22    33    26 1
   23    34    22 1
   24    34    27 1
   25    35    23 1
   26    35    28 1
   27    36    12 1
   28    36    24 1
   29    37    13 1
   30    37    15 1
   31    38    31 1
   32    39    20 1
   33    39    32 1
   34    40     2 1
   35    40    33 1
   36    41     3 1
   37    41    34 1
   38    42     4 1
   39    42    35 1
   40    43    38 1
   41    44     5 1
   42    44    17 1
   43    44    39 1
   44    45    10 1
   45    45    18 1
   46    45    40 1
   47    46    19 1
   48    46    41 1
   49    47    14 1
   50    47    16 1
   51    47    42 1
   52    48    38 1
   53    49    48 1
   54    50    49 1
   55    51    50 1
   56    52    51 1
   57    53    51 1
   58    54    53 1
   59    55    54 1
   60    56    55 1
   61    57    56 1
   62    58    56 1
   63    59    58 1
   64    60    59 1
   65    61    60 1
   66    62    61 1
   67    63    61 1
   68    64    27 1
   69    64    46 1
   70    65     5 1
   71    65    10 1
   72    65    64 1
   73    65    14 1
   74    66    23 1
   75    67    23 1
   76    68    23 1
   77    69    22 1
   78    70    22 1
   79    71    22 1
   80    72    21 1
   81    73    21 1
   82    74    21 1
   83    75    20 1
   84    76    20 1
   85    77    20 1
   86    78    15 1
   87    79    15 1
   88    80    15 1
   89    81     8 1
   90    82     8 1
   91    83     8 1
   92    84     7 1
   93    85     7 1
   94    86     6 1
   95    87     6 1
   96    88     3 1
   97    89     3 1
   98    90     1 1
   99    91     1 1
  100    92    63 1
  101    93    63 1
  102    94    63 1
  103    95    62 1
  104    96    62 1
  105    97    62 1
  106    98    60 1
  107    99    60 1
  108   100    59 1
  109   101    59 1
  110   102    58 1
  111   103    58 1
  112   104    57 1
  113   105    57 1
  114   106    57 1
  115   107    55 1
  116   108    55 1
  117   109    54 1
  118   110    54 1
  119   111    53 1
  120   112    53 1
  121   113    19 1
  122   114    18 1
  123   115    17 1
  124   116     9 1
  125   117     2 1
  126   118    52 1
  127   119    52 1
  128   120    52 1
  129   121    51 1
  130   122    50 1
  131   123    50 1
  132   124    49 1
  133   125    49 1
  134   126    48 1
  135   127    48 1
  136   128    43 1
  137   129    43 1
  138   130    43 1
  139   131    39 1
  140   132    32 1
  141   133    31 1
  142   134    61 1
  143   135    56 1
  144   136    24 1
  145   137    24 1
  146   139   138 1
  147   140   139 1
  148   141   140 1
  149   142   140 1
  150   143   142 1
  151   144   138 1
  152   144   143 1
  153   145   144 1
  154   146   145 1
  155   147   146 1
  156   148   147 1
  157   149   148 1
  158   150   149 1
  159   151   150 1
  160   152   151 1
  161   153   152 1
  162   154   138 1
  163   155   138 1
  164   156   143 1
  165   157   147 1
  166   158   151 1
  167   160   159 1
  168   161   160 1
  169   162   161 1
  170   163   161 1
  171   164   163 1
  172   165   159 1
  173   165   164 1
  174   166   165 1
  175   167   166 1
  176   168   167 1
  177   169   168 1
  178   170   169 1
  179   171   170 1
  180   172   171 1
  181   173   172 1
  182   174   153 1
  183   174   173 1
  184   175   159 1
  185   176   159 1
  186   177   164 1
  187   178   168 1
  188   179   172 1
  189   180   179 1
  190   181   179 1
  191   182   179 1
  192   183   178 1
  193   184   178 1
  194   185   178 1
  195   186   177 1
  196   187   177 1
  197   188   177 1
  198   189   176 1
  199   190   176 1
  200   191   176 1
  201   192   175 1
  202   193   175 1
  203   194   175 1
  204   195   160 1
  205   196   160 1
  206   197   158 1
  207   198   158 1
  208   199   158 1
  209   200   157 1
  210   201   157 1
  211   202   157 1
  212   203   156 1
  213   204   156 1
  214   205   156 1
  215   206   155 1
  216   207   155 1
  217   208   155 1
  218   209   154 1
  219   210   154 1
  220   211   154 1
  221   212   141 1
  222   213   146 1
  223   214   145 1
  224   215   142 1
  225   216   142 1
  226   217   174 1
  227   218   173 1
  228   219   171 1
  229   220   170 1
  230   221   169 1
  231   222   140 1
  232   223   167 1
  233   224   166 1
  234   225   165 1
  235   226   163 1
  236   227   161 1
  237   228   139 1
  238   229   139 1
  239   230   153 1
  240   231   152 1
  241   232   150 1
  242   233   149 1
  243   234   148 1
  244   235   162 1
  245   65    153 1
  246   65    174 1
@<TRIPOS>SUBSTRUCTURE
      1 CLA               1 ****               0 ****  **** 
      2 LUT             138 ****               0 ****  **** 
