@<TRIPOS>MOLECULE
Cpptraj generated mol2 file.
  235   246     2     0     0
SMALL
USER_CHARGES


@<TRIPOS>ATOM
      1 CAA        78.2788   58.6877   34.3758 a2         1 CLA     -0.055900
      2 CAB        77.9614   61.5779   43.6531 c8         1 CLA     -0.148500
      3 CAC        70.8901   57.6924   42.5390 a2         1 CLA     -0.012600
      4 CAD        73.9585   55.9675   35.0888 ck         1 CLA      0.398800
      5 NA         77.1925   58.6503   37.7226 ns         1 CLA     -0.225500
      6 CBA        79.5073   58.6945   33.4722 a2         1 CLA     -0.135000
      7 CBB        79.0854   61.5130   44.4949 c0         1 CLA     -0.395200
      8 CBC        70.7994   56.1834   42.4619 a3         1 CLA     -0.037700
      9 CBD        75.4079   56.5688   34.7865 a1         1 CLA     -0.053900
     10 NB         76.9769   59.8774   40.5178 nm         1 CLA     -0.295700
     11 OBD        73.2865   55.2269   34.3663 o2         1 CLA     -0.494600
     12 CGA        79.9719   57.2539   32.9839 c4         1 CLA      0.827000
     13 CGD        76.3746   55.4776   34.3369 c4         1 CLA      0.655300
     14 ND         74.3435   57.7040   38.1025 nm         1 CLA     -0.291600
     15 CED        76.6962   53.1550   34.1273 a3         1 CLA      0.005400
     16 CHA        75.8175   57.3154   36.1339 cs         1 CLA     -0.123800
     17 CHB        78.8289   59.8420   39.0271 aa         1 CLA     -0.291900
     18 CHC        75.5369   60.0027   42.5435 aa         1 CLA     -0.090400
     19 CHD        72.4604   57.3990   39.6569 aa         1 CLA     -0.052000
     20 CMA        80.6455   58.1769   36.9496 a3         1 CLA     -0.230700
     21 CMB        80.2622   61.5244   41.2729 a3         1 CLA     -0.180800
     22 CMC        73.1077   59.3010   44.2164 a3         1 CLA     -0.134000
     23 CMD        71.1405   55.8217   37.1818 a3         1 CLA     -0.141100
     24 C1         80.6880   55.1722   33.8456 a2         1 CLA      0.023000
     25 C1A        77.0504   57.9757   36.5356 ac         1 CLA     -0.015100
     26 C1B        78.2545   60.1497   40.2540 cr         1 CLA      0.054700
     27 C1C        74.3280   59.3421   42.0764 cn         1 CLA     -0.005600
     28 C1D        73.1011   57.1959   38.3969 ap         1 CLA     -0.047300
     29 O1A        79.9321   56.8348   31.8152 o2         1 CLA     -0.610800
     30 O1D        77.2946   55.6601   33.5688 o2         1 CLA     -0.558200
     31 C2         81.3573   54.7145   35.0418 c8         1 CLA     -0.325100
     32 C2A        78.4104   58.0379   35.7569 a1         1 CLA      0.098600
     33 C2B        78.8987   60.9361   41.2777 cb         1 CLA      0.088500
     34 C2C        73.1443   59.0156   42.8203 cb         1 CLA      0.053700
     35 C2D        72.5644   56.4208   37.3263 cb         1 CLA      0.058900
     36 O2A        80.3914   56.5658   34.0857 o1         1 CLA     -0.437200
     37 O2D        76.0247   54.2849   34.7717 o1         1 CLA     -0.357600
     38 C3         82.2450   53.7097   35.1332 c5         1 CLA      0.031200
     39 C3A        79.3216   58.8997   36.7685 a1         1 CLA      0.166800
     40 C3B        77.8821   61.0332   42.2515 cb         1 CLA      0.035000
     41 C3C        72.2030   58.3422   42.0507 cb         1 CLA     -0.089900
     42 C3D        73.6314   56.3872   36.4221 cb         1 CLA     -0.035900
     43 C4         81.8820   52.2586   35.2739 a3         1 CLA     -0.053300
     44 C4A        78.3536   59.1155   37.8908 ac         1 CLA      0.001800
     45 C4B        76.7235   60.2920   41.8002 cn         1 CLA     -0.020900
     46 C4C        72.9087   58.1771   40.7569 cr         1 CLA     -0.044400
     47 C4D        74.6587   57.1900   36.9399 c6         1 CLA     -0.046000
     48 C5         83.7101   54.0176   34.7015 a2         1 CLA     -0.070400
     49 C6         84.4037   55.2992   35.2503 a2         1 CLA      0.043900
     50 C7         84.4453   55.3182   36.7822 a2         1 CLA     -0.150000
     51 C8         84.7119   56.7356   37.4121 a1         1 CLA      0.064200
     52 C9         85.9640   57.3608   36.9187 a3         1 CLA     -0.259300
     53 C10        84.6975   56.6740   38.9734 a2         1 CLA     -0.071900
     54 C11        83.3646   56.6759   39.7292 a2         1 CLA      0.014500
     55 C12        83.6642   56.7443   41.2356 a2         1 CLA     -0.112100
     56 C13        82.4591   56.8402   42.2017 a1         1 CLA      0.089200
     57 C14        81.7588   58.1873   42.2422 a3         1 CLA     -0.239100
     58 C15        82.7000   56.2266   43.6648 a2         1 CLA     -0.102200
     59 C16        83.8905   56.8230   44.4463 a2         1 CLA      0.023900
     60 C17        83.8877   56.4563   45.9019 a2         1 CLA     -0.105700
     61 C18        84.8479   57.2346   46.8164 a1         1 CLA      0.206800
     62 C19        84.8763   58.7543   46.6589 a3         1 CLA     -0.280100
     63 C20        84.5829   56.9440   48.3470 a3         1 CLA     -0.280100
     64 NC         74.1959   58.7670   40.8212 nx         1 CLA     -0.309200
     65 MG         75.6466   58.8554   39.2622 mg         1 CLA      0.895000
     66 HMD3       70.8918   55.5573   38.1976 dc         1 CLA      0.064300
     67 HMD2       70.4027   56.4419   36.6644 dc         1 CLA      0.064300
     68 HMD1       71.2281   54.8689   36.6039 dc         1 CLA      0.064300
     69 HMC3       73.4461   60.2796   44.3532 dc         1 CLA      0.052100
     70 HMC2       72.1246   59.2484   44.6212 dc         1 CLA      0.052100
     71 HMC1       73.7260   58.5672   44.7302 dc         1 CLA      0.052100
     72 HMB3       80.9225   60.8443   41.8982 dc         1 CLA      0.063600
     73 HMB2       80.7449   61.4765   40.3553 dc         1 CLA      0.063600
     74 HMB1       80.2252   62.5366   41.6036 dc         1 CLA      0.063600
     75 HMA3       80.4969   57.2698   37.5082 dc         1 CLA      0.058300
     76 HMA2       81.2382   57.9076   36.0110 dc         1 CLA      0.058300
     77 HMA1       81.3205   58.7929   37.5651 dc         1 CLA      0.058300
     78 HED3       76.3423   52.2133   34.5539 dc         1 CLA      0.079300
     79 HED2       76.4035   53.1159   33.0504 dc         1 CLA      0.079300
     80 HED1       77.8070   53.2284   34.2396 dc         1 CLA      0.079300
     81 HBC3       71.7511   55.7137   42.8427 dc         1 CLA      0.016300
     82 HBC2       69.9149   55.9063   43.0506 dc         1 CLA      0.016300
     83 HBC1       70.6109   55.7979   41.4178 dc         1 CLA      0.016300
     84 HBB2       79.0277   61.8532   45.5285 da         1 CLA      0.183000
     85 HBB1       80.0490   61.1421   44.1338 da         1 CLA      0.183000
     86 HBA2       79.2713   59.2362   32.5848 dc         1 CLA      0.029400
     87 HBA1       80.3553   59.2534   33.9747 dc         1 CLA      0.029400
     88 HAC2       70.6467   57.9502   43.5310 dc         1 CLA      0.029300
     89 HAC1       70.0776   58.1105   41.9032 dc         1 CLA      0.029300
     90 HAA2       77.5102   58.1924   33.8318 dc         1 CLA      0.028700
     91 HAA1       78.0391   59.7069   34.5339 dc         1 CLA      0.028700
     92 H203       85.4549   57.3786   48.8191 dc         1 CLA      0.065600
     93 H202       83.6553   57.3857   48.7570 dc         1 CLA      0.065600
     94 H201       84.5463   55.9037   48.7570 dc         1 CLA      0.065600
     95 H193       83.8333   58.9754   46.8294 dc         1 CLA      0.065600
     96 H192       85.4057   59.1749   47.4563 dc         1 CLA      0.065600
     97 H191       85.2019   59.0491   45.7081 dc         1 CLA      0.065600
     98 H172       82.9806   56.6515   46.3764 dc         1 CLA      0.027600
     99 H171       84.2566   55.4360   45.9727 dc         1 CLA      0.027600
    100 H162       84.8297   56.4650   43.9484 dc         1 CLA      0.002900
    101 H161       83.8342   57.8721   44.3588 dc         1 CLA      0.002900
    102 H152       81.7505   56.2389   44.1412 dc         1 CLA      0.029100
    103 H151       82.8249   55.1659   43.6392 dc         1 CLA      0.029100
    104 H143       81.5528   58.4708   41.1520 dc         1 CLA      0.063600
    105 H142       80.8770   58.1317   42.7925 dc         1 CLA      0.063600
    106 H141       82.4582   58.8021   42.7416 dc         1 CLA      0.063600
    107 H122       84.3050   55.9088   41.5694 dc         1 CLA      0.032500
    108 H121       84.3616   57.6148   41.4238 dc         1 CLA      0.032500
    109 H112       82.9340   57.5776   39.3995 dc         1 CLA      0.006600
    110 H111       82.7597   55.7702   39.6320 dc         1 CLA      0.006600
    111 H102       85.4795   55.9000   39.2865 dc         1 CLA      0.024100
    112 H101       85.0910   57.6302   39.3458 dc         1 CLA      0.024100
    113 HHD        71.4376   56.9574   39.8275 da         1 CLA      0.174300
    114 HHC        75.5411   60.3691   43.5573 da         1 CLA      0.136800
    115 HHB        79.8722   60.1460   39.0077 da         1 CLA      0.138300
    116 HBD        75.2713   57.2389   33.9843 dc         1 CLA      0.107700
    117 HAB        76.9691   61.9272   44.0475 da         1 CLA      0.155200
    118 H93        85.9891   58.3817   37.2016 dc         1 CLA      0.069500
    119 H92        86.7988   56.8549   37.3552 dc         1 CLA      0.069500
    120 H91        86.0634   57.3272   35.9090 dc         1 CLA      0.069500
    121 H8         83.8889   57.4413   37.1766 dc         1 CLA      0.029300
    122 H72        83.4905   55.0324   37.1055 dc         1 CLA      0.044400
    123 H71        85.1357   54.4989   37.1234 dc         1 CLA      0.044400
    124 H62        85.4342   55.2608   34.9340 dc         1 CLA      0.015600
    125 H61        83.8488   56.2069   34.8486 dc         1 CLA      0.015600
    126 H52        84.2726   53.1045   34.7655 dc         1 CLA      0.033200
    127 H51        83.7580   54.0429   33.5894 dc         1 CLA      0.033200
    128 H43        81.9769   52.0523   36.3094 dc         1 CLA      0.037000
    129 H42        80.8093   52.1237   34.9407 dc         1 CLA      0.037000
    130 H41        82.5754   51.6137   34.7044 dc         1 CLA      0.037000
    131 H3A        79.4200   59.8779   36.3380 dc         1 CLA      0.041100
    132 H2A        78.6979   56.9551   35.7280 dc         1 CLA      0.083100
    133 H2         81.1891   55.2352   35.8961 da         1 CLA      0.180900
    134 H18        85.8787   56.8091   46.6115 dc         1 CLA     -0.003900
    135 H13        81.6851   56.2039   41.8224 dc         1 CLA      0.019700
    136 H12        79.7204   54.6847   33.6703 dc         1 CLA      0.120400
    137 H11        81.3958   55.0788   33.0579 dc         1 CLA      0.120400
    138 C1         68.4072   61.1527   49.6882 Z1         2 LUT      0.509236
    139 C2         67.0057   60.6644   50.1549 Z2         2 LUT     -0.434695
    140 C3         66.0689   61.7431   50.7513 Z3         2 LUT      0.437453
    141 O3         66.2399   61.5905   52.1616 S1         2 LUT     -0.547129
    142 C4         66.2346   63.1507   50.1961 Z4         2 LUT     -0.468603
    143 C5         67.1040   63.1528   48.9364 Z5         2 LUT      0.279246
    144 C6         68.1077   62.2414   48.6897 Z6         2 LUT     -0.305473
    145 C7         68.4535   61.9967   47.2577 Z7         2 LUT      0.069402
    146 C8         69.4552   62.6296   46.6404 Z8         2 LUT     -0.191631
    147 C9         69.9885   62.1515   45.3475 Z9         2 LUT      0.196698
    148 C10        71.1554   62.7893   44.9469 Y1         2 LUT     -0.208611
    149 C11        71.8420   62.8117   43.6963 Y2         2 LUT      0.030784
    150 C12        73.1327   63.2516   43.4544 Y3         2 LUT     -0.220316
    151 C13        73.9506   63.2047   42.3048 Y4         2 LUT      0.215937
    152 C14        75.1725   63.8346   42.3023 Y5         2 LUT     -0.185793
    153 C15        76.1525   63.9889   41.3159 Y6         2 LUT     -0.057835
    154 C16        69.1791   59.8534   49.2335 Y7         2 LUT     -0.405615
    155 C17        69.0989   61.8810   50.8717 Y7         2 LUT     -0.405615
    156 C18        66.5086   64.0583   47.8678 Y9         2 LUT     -0.369639
    157 C19        69.4159   61.0666   44.5517 W1         2 LUT     -0.333362
    158 C20        73.4014   62.3950   41.1453 W2         2 LUT     -0.323439
    159 C21        87.4511   64.9053   35.2364 Z1         2 LUT      0.406104
    160 C22        88.1634   64.4923   33.9841 Z2         2 LUT     -0.404965
    161 C23        88.4176   65.6438   32.9746 Z3         2 LUT      0.391255
    162 O23        89.0158   65.0993   31.7995 S1         2 LUT     -0.528210
    163 C24        87.1740   66.4976   32.6849 W6         2 LUT     -0.258361
    164 C25        86.1251   66.5117   33.5375 Z5         2 LUT      0.133546
    165 C26        86.0355   65.6324   34.7577 W8         2 LUT     -0.147008
    166 C27        85.3806   66.3186   35.9229 Z7         2 LUT      0.023843
    167 C28        84.2106   66.0531   36.4172 Z8         2 LUT     -0.216987
    168 C29        83.5531   66.6558   37.5722 Z9         2 LUT      0.206524
    169 C30        82.3882   66.0496   38.0354 Y1         2 LUT     -0.215556
    170 C31        81.5621   66.3636   39.1804 Y2         2 LUT      0.025142
    171 C32        80.4084   65.6240   39.4565 Y3         2 LUT     -0.212209
    172 C33        79.3117   65.7602   40.4668 Y4         2 LUT      0.240937
    173 C34        78.3074   64.8267   40.4730 Y5         2 LUT     -0.218862
    174 C35        77.2339   64.8056   41.5158 Y6         2 LUT     -0.023547
    175 C36        88.4019   65.8132   36.0056 Y7         2 LUT     -0.393485
    176 C37        87.3752   63.6188   36.0652 Y7         2 LUT     -0.393485
    177 C38        84.7765   67.1602   33.0932 Y9         2 LUT     -0.387526
    178 C39        84.1274   67.8774   38.1990 W1         2 LUT     -0.322618
    179 C40        79.4087   66.9718   41.4186 W2         2 LUT     -0.358472
    180 H403       79.4090   67.9270   40.8811 R7         2 LUT      0.097720
    181 H402       78.6843   67.0050   42.1486 R7         2 LUT      0.097720
    182 H401       80.2955   66.9823   41.9772 R7         2 LUT      0.097720
    183 H393       85.0603   67.7150   38.7456 R4         2 LUT      0.082505
    184 H392       84.2805   68.5612   37.3560 R4         2 LUT      0.082505
    185 H391       83.4614   68.4215   38.8559 R4         2 LUT      0.082505
    186 H383       84.8602   67.4383   32.0748 R1         2 LUT      0.104030
    187 H382       83.9380   66.5419   33.3798 R1         2 LUT      0.104030
    188 H381       84.5942   68.0565   33.6231 R1         2 LUT      0.104030
    189 H373       86.9198   63.7479   37.0413 T4         2 LUT      0.089537
    190 H372       86.8670   62.8213   35.5110 T4         2 LUT      0.089537
    191 H371       88.3677   63.2416   36.4023 T4         2 LUT      0.089537
    192 H363       89.2672   65.2128   36.1310 T4         2 LUT      0.089537
    193 H362       88.6637   66.6644   35.3591 T4         2 LUT      0.089537
    194 H361       88.0817   66.0537   37.0416 T4         2 LUT      0.089537
    195 H222       89.0183   63.8571   34.1163 U2         2 LUT      0.127376
    196 H221       87.6549   63.7432   33.3993 U2         2 LUT      0.127376
    197 H203       73.0031   63.0403   40.3862 R7         2 LUT      0.087068
    198 H202       74.2933   62.0574   40.6976 R7         2 LUT      0.087068
    199 H201       72.6855   61.6449   41.3464 R7         2 LUT      0.087068
    200 H193       69.3199   60.1178   45.1921 R4         2 LUT      0.089716
    201 H192       68.4370   61.3592   44.1146 R4         2 LUT      0.089716
    202 H191       70.0695   60.8064   43.8028 R4         2 LUT      0.089716
    203 H183       66.1917   63.3904   47.0894 R1         2 LUT      0.094572
    204 H182       65.6166   64.6110   48.1480 R1         2 LUT      0.094572
    205 H181       67.2574   64.7824   47.6000 R1         2 LUT      0.094572
    206 H173       69.8951   62.5341   50.5236 T4         2 LUT      0.093752
    207 H172       68.4859   62.5414   51.5301 T4         2 LUT      0.093752
    208 H171       69.5661   61.2102   51.6400 T4         2 LUT      0.093752
    209 H163       70.2419   60.0686   48.8774 T4         2 LUT      0.093752
    210 H162       69.3817   59.0807   50.0415 T4         2 LUT      0.093752
    211 H161       68.6727   59.3461   48.4276 T4         2 LUT      0.093752
    212 HO3        65.6185   62.1470   52.6658 Q1         2 LUT      0.300121
    213 H8         69.9122   63.4924   47.1949 U7         2 LUT      0.080784
    214 H7         67.8430   61.1437   46.8314 U6         2 LUT      0.042190
    215 H42        65.2471   63.6512   50.0913 U5         2 LUT      0.145166
    216 H41        66.5558   63.9295   50.9987 U5         2 LUT      0.145166
    217 H35        77.3916   65.4875   42.3900 T3         2 LUT      0.077919
    218 H34        78.3078   64.0929   39.7233 T2         2 LUT      0.073626
    219 H32        80.3165   64.6814   38.8598 T1         2 LUT      0.092510
    220 H31        81.7311   67.2931   39.6718 U9         2 LUT      0.070048
    221 H30        81.9184   65.2116   37.4943 U8         2 LUT      0.085442
    222 H3         65.0725   61.4057   50.5467 U3         2 LUT     -0.031596
    223 H28        83.7375   65.2323   36.0669 U7         2 LUT      0.084728
    224 H27        85.9118   67.2090   36.2713 U6         2 LUT      0.087291
    225 H26        85.4535   64.8209   34.3012 Q6         2 LUT      0.075325
    226 H24        87.1083   67.0219   31.6837 Q5         2 LUT      0.094482
    227 H23        89.2890   66.1952   33.3970 U3         2 LUT     -0.024869
    228 H22        66.5549   60.1716   49.3414 U2         2 LUT      0.127376
    229 H21        67.1407   59.8717   50.8888 U2         2 LUT      0.127376
    230 H15        76.1471   63.3905   40.4177 T3         2 LUT      0.093200
    231 H14        75.3943   64.3838   43.2258 T2         2 LUT      0.068865
    232 H12        73.5749   63.8189   44.3291 T1         2 LUT      0.095507
    233 H11        71.3651   62.3732   42.7728 U9         2 LUT      0.068930
    234 H10        71.4572   63.5950   45.6476 U8         2 LUT      0.083911
    235 H1         88.4618   64.8324   31.0706 Q1         2 LUT      0.297311
@<TRIPOS>BOND
    1     6     1 1
    2     7     2 1
    3     8     3 1
    4     9     4 1
    5    11     4 1
    6    12     6 1
    7    13     9 1
    8    16     9 1
    9    25     5 1
   10    25    16 1
   11    26    10 1
   12    26    17 1
   13    27    18 1
   14    28    14 1
   15    28    19 1
   16    29    12 1
   17    30    13 1
   18    31    24 1
   19    32     1 1
   20    32    25 1
   21    33    21 1
   22    33    26 1
   23    34    22 1
   24    34    27 1
   25    35    23 1
   26    35    28 1
   27    36    12 1
   28    36    24 1
   29    37    13 1
   30    37    15 1
   31    38    31 1
   32    39    20 1
   33    39    32 1
   34    40     2 1
   35    40    33 1
   36    41     3 1
   37    41    34 1
   38    42     4 1
   39    42    35 1
   40    43    38 1
   41    44     5 1
   42    44    17 1
   43    44    39 1
   44    45    10 1
   45    45    18 1
   46    45    40 1
   47    46    19 1
   48    46    41 1
   49    47    14 1
   50    47    16 1
   51    47    42 1
   52    48    38 1
   53    49    48 1
   54    50    49 1
   55    51    50 1
   56    52    51 1
   57    53    51 1
   58    54    53 1
   59    55    54 1
   60    56    55 1
   61    57    56 1
   62    58    56 1
   63    59    58 1
   64    60    59 1
   65    61    60 1
   66    62    61 1
   67    63    61 1
   68    64    27 1
   69    64    46 1
   70    65     5 1
   71    65    10 1
   72    65    64 1
   73    65    14 1
   74    66    23 1
   75    67    23 1
   76    68    23 1
   77    69    22 1
   78    70    22 1
   79    71    22 1
   80    72    21 1
   81    73    21 1
   82    74    21 1
   83    75    20 1
   84    76    20 1
   85    77    20 1
   86    78    15 1
   87    79    15 1
   88    80    15 1
   89    81     8 1
   90    82     8 1
   91    83     8 1
   92    84     7 1
   93    85     7 1
   94    86     6 1
   95    87     6 1
   96    88     3 1
   97    89     3 1
   98    90     1 1
   99    91     1 1
  100    92    63 1
  101    93    63 1
  102    94    63 1
  103    95    62 1
  104    96    62 1
  105    97    62 1
  106    98    60 1
  107    99    60 1
  108   100    59 1
  109   101    59 1
  110   102    58 1
  111   103    58 1
  112   104    57 1
  113   105    57 1
  114   106    57 1
  115   107    55 1
  116   108    55 1
  117   109    54 1
  118   110    54 1
  119   111    53 1
  120   112    53 1
  121   113    19 1
  122   114    18 1
  123   115    17 1
  124   116     9 1
  125   117     2 1
  126   118    52 1
  127   119    52 1
  128   120    52 1
  129   121    51 1
  130   122    50 1
  131   123    50 1
  132   124    49 1
  133   125    49 1
  134   126    48 1
  135   127    48 1
  136   128    43 1
  137   129    43 1
  138   130    43 1
  139   131    39 1
  140   132    32 1
  141   133    31 1
  142   134    61 1
  143   135    56 1
  144   136    24 1
  145   137    24 1
  146   139   138 1
  147   140   139 1
  148   141   140 1
  149   142   140 1
  150   143   142 1
  151   144   138 1
  152   144   143 1
  153   145   144 1
  154   146   145 1
  155   147   146 1
  156   148   147 1
  157   149   148 1
  158   150   149 1
  159   151   150 1
  160   152   151 1
  161   153   152 1
  162   154   138 1
  163   155   138 1
  164   156   143 1
  165   157   147 1
  166   158   151 1
  167   160   159 1
  168   161   160 1
  169   162   161 1
  170   163   161 1
  171   164   163 1
  172   165   159 1
  173   165   164 1
  174   166   165 1
  175   167   166 1
  176   168   167 1
  177   169   168 1
  178   170   169 1
  179   171   170 1
  180   172   171 1
  181   173   172 1
  182   174   153 1
  183   174   173 1
  184   175   159 1
  185   176   159 1
  186   177   164 1
  187   178   168 1
  188   179   172 1
  189   180   179 1
  190   181   179 1
  191   182   179 1
  192   183   178 1
  193   184   178 1
  194   185   178 1
  195   186   177 1
  196   187   177 1
  197   188   177 1
  198   189   176 1
  199   190   176 1
  200   191   176 1
  201   192   175 1
  202   193   175 1
  203   194   175 1
  204   195   160 1
  205   196   160 1
  206   197   158 1
  207   198   158 1
  208   199   158 1
  209   200   157 1
  210   201   157 1
  211   202   157 1
  212   203   156 1
  213   204   156 1
  214   205   156 1
  215   206   155 1
  216   207   155 1
  217   208   155 1
  218   209   154 1
  219   210   154 1
  220   211   154 1
  221   212   141 1
  222   213   146 1
  223   214   145 1
  224   215   142 1
  225   216   142 1
  226   217   174 1
  227   218   173 1
  228   219   171 1
  229   220   170 1
  230   221   169 1
  231   222   140 1
  232   223   167 1
  233   224   166 1
  234   225   165 1
  235   226   163 1
  236   227   161 1
  237   228   139 1
  238   229   139 1
  239   230   153 1
  240   231   152 1
  241   232   150 1
  242   233   149 1
  243   234   148 1
  244   235   162 1
  245   65    153 1
  246   65    174 1
@<TRIPOS>SUBSTRUCTURE
      1 CLA               1 ****               0 ****  **** 
      2 LUT             138 ****               0 ****  **** 
