@<TRIPOS>MOLECULE
Cpptraj generated mol2 file.
  235   246     2     0     0
SMALL
USER_CHARGES


@<TRIPOS>ATOM
      1 CAA        78.9956   57.4588   34.2684 a2         1 CLA     -0.055900
      2 CAB        78.6510   61.1359   43.3226 c8         1 CLA     -0.148500
      3 CAC        71.5230   57.9388   42.1973 a2         1 CLA     -0.012600
      4 CAD        74.8413   54.7524   35.4655 ck         1 CLA      0.398800
      5 NA         77.8846   57.8985   37.5667 ns         1 CLA     -0.225500
      6 CBA        80.1823   57.2521   33.3227 a2         1 CLA     -0.135000
      7 CBB        79.5702   61.0366   44.2907 c0         1 CLA     -0.395200
      8 CBC        71.2792   56.5729   42.7875 a3         1 CLA     -0.037700
      9 CBD        76.1974   55.4425   35.1001 a1         1 CLA     -0.053900
     10 NB         77.6807   59.3483   40.2173 nm         1 CLA     -0.295700
     11 OBD        74.2800   53.8597   34.7992 o2         1 CLA     -0.494600
     12 CGA        80.7718   55.8250   33.2589 c4         1 CLA      0.827000
     13 CGD        77.2299   54.5146   34.4851 c4         1 CLA      0.655300
     14 ND         74.9757   57.0705   38.1064 nm         1 CLA     -0.291600
     15 CED        78.0074   52.1626   34.5692 a3         1 CLA      0.005400
     16 CHA        76.5499   56.3709   36.2948 cs         1 CLA     -0.123800
     17 CHB        79.5512   59.3797   38.6621 aa         1 CLA     -0.291900
     18 CHC        76.2650   59.5527   42.2504 aa         1 CLA     -0.090400
     19 CHD        73.0855   57.1238   39.5779 aa         1 CLA     -0.052000
     20 CMA        81.4576   57.4167   36.8459 a3         1 CLA     -0.230700
     21 CMB        80.9805   60.8580   40.8729 a3         1 CLA     -0.180800
     22 CMC        73.7558   59.3020   44.1462 a3         1 CLA     -0.134000
     23 CMD        71.8463   55.1702   37.3758 a3         1 CLA     -0.141100
     24 C1         81.9213   54.0771   34.4965 a2         1 CLA      0.023000
     25 C1A        77.7505   57.0320   36.5087 ac         1 CLA     -0.015100
     26 C1B        78.9214   59.6595   39.9041 cr         1 CLA      0.054700
     27 C1C        75.0738   58.9782   41.8818 cn         1 CLA     -0.005600
     28 C1D        73.7379   56.6479   38.4383 ap         1 CLA     -0.047300
     29 O1A        80.5261   55.0226   32.3824 o2         1 CLA     -0.610800
     30 O1D        77.7048   54.5475   33.3912 o2         1 CLA     -0.558200
     31 C2         81.3774   53.5209   35.8328 c8         1 CLA     -0.325100
     32 C2A        79.1211   56.9736   35.7744 a1         1 CLA      0.098600
     33 C2B        79.5952   60.3071   40.9741 cb         1 CLA      0.088500
     34 C2C        73.9296   58.8039   42.6951 cb         1 CLA      0.053700
     35 C2D        73.1997   55.8336   37.4305 cb         1 CLA      0.058900
     36 O2A        81.4107   55.4811   34.3926 o1         1 CLA     -0.437200
     37 O2D        77.4472   53.3805   35.2554 o1         1 CLA     -0.357600
     38 C3         81.9201   52.7021   36.8075 c5         1 CLA      0.031200
     39 C3A        80.0220   57.9679   36.5232 a1         1 CLA      0.166800
     40 C3B        78.6201   60.4833   42.0381 cb         1 CLA      0.035000
     41 C3C        72.9881   58.1965   41.8481 cb         1 CLA     -0.089900
     42 C3D        74.3250   55.5258   36.6108 cb         1 CLA     -0.035900
     43 C4         81.4982   51.2398   36.9503 a3         1 CLA     -0.053300
     44 C4A        79.1627   58.4010   37.6963 ac         1 CLA      0.001800
     45 C4B        77.4432   59.7712   41.5178 cn         1 CLA     -0.020900
     46 C4C        73.6041   57.9753   40.6181 cr         1 CLA     -0.044400
     47 C4D        75.3761   56.3652   37.0699 c6         1 CLA     -0.046000
     48 C5         82.5731   53.3714   38.0364 a2         1 CLA     -0.070400
     49 C6         83.8256   54.2031   37.7459 a2         1 CLA      0.043900
     50 C7         84.1422   55.1047   38.8956 a2         1 CLA     -0.150000
     51 C8         85.2944   56.1741   38.8593 a1         1 CLA      0.064200
     52 C9         86.5993   55.4623   38.5005 a3         1 CLA     -0.259300
     53 C10        85.4680   56.8462   40.3346 a2         1 CLA     -0.071900
     54 C11        84.2569   57.5934   40.9651 a2         1 CLA      0.014500
     55 C12        84.6993   58.5403   42.1083 a2         1 CLA     -0.112100
     56 C13        85.3231   57.9622   43.3431 a1         1 CLA      0.089200
     57 C14        84.7270   56.6206   43.7364 a3         1 CLA     -0.239100
     58 C15        85.4149   58.9538   44.5555 a2         1 CLA     -0.102200
     59 C16        84.0884   59.4931   45.2054 a2         1 CLA      0.023900
     60 C17        84.2999   60.6553   46.2412 a2         1 CLA     -0.105700
     61 C18        83.0074   61.4476   46.6511 a1         1 CLA      0.206800
     62 C19        82.0692   60.4899   47.5125 a3         1 CLA     -0.280100
     63 C20        83.3196   62.6662   47.4692 a3         1 CLA     -0.280100
     64 NC         74.8871   58.5052   40.6213 nx         1 CLA     -0.309200
     65 MG         76.2963   58.3443   39.0986 mg         1 CLA      0.895000
     66 HMD3       71.9107   54.4957   38.2157 dc         1 CLA      0.064300
     67 HMD2       71.1220   55.8926   37.4777 dc         1 CLA      0.064300
     68 HMD1       71.6986   54.7169   36.4275 dc         1 CLA      0.064300
     69 HMC3       74.5162   58.9402   44.7931 dc         1 CLA      0.052100
     70 HMC2       73.6570   60.3102   44.2766 dc         1 CLA      0.052100
     71 HMC1       72.9022   58.8214   44.5842 dc         1 CLA      0.052100
     72 HMB3       81.3395   61.2542   41.8918 dc         1 CLA      0.063600
     73 HMB2       81.5913   59.9739   40.6250 dc         1 CLA      0.063600
     74 HMB1       81.0068   61.5815   40.0992 dc         1 CLA      0.063600
     75 HMA3       82.0601   58.0229   37.4605 dc         1 CLA      0.058300
     76 HMA2       81.3367   56.5366   37.3975 dc         1 CLA      0.058300
     77 HMA1       82.0169   57.1628   35.9443 dc         1 CLA      0.058300
     78 HED3       77.8950   51.2215   35.1752 dc         1 CLA      0.079300
     79 HED2       77.4125   51.9967   33.6682 dc         1 CLA      0.079300
     80 HED1       79.0856   52.2952   34.3415 dc         1 CLA      0.079300
     81 HBC3       71.9478   56.3283   43.5844 dc         1 CLA      0.016300
     82 HBC2       70.2931   56.6005   43.3145 dc         1 CLA      0.016300
     83 HBC1       71.2313   55.8073   41.9706 dc         1 CLA      0.016300
     84 HBB2       79.5926   61.7366   45.1422 da         1 CLA      0.183000
     85 HBB1       80.5643   60.5887   44.0417 da         1 CLA      0.183000
     86 HBA2       80.0437   57.6555   32.3342 dc         1 CLA      0.029400
     87 HBA1       80.9464   57.8724   33.7245 dc         1 CLA      0.029400
     88 HAC2       71.1334   58.7647   42.8894 dc         1 CLA      0.029300
     89 HAC1       70.9647   58.1007   41.2897 dc         1 CLA      0.029300
     90 HAA2       78.1817   56.9123   33.7791 dc         1 CLA      0.028700
     91 HAA1       78.7142   58.5131   34.3318 dc         1 CLA      0.028700
     92 H203       82.3729   62.9723   47.8378 dc         1 CLA      0.065600
     93 H202       83.9139   62.4007   48.3016 dc         1 CLA      0.065600
     94 H201       83.7966   63.4046   46.8331 dc         1 CLA      0.065600
     95 H193       82.4816   60.1704   48.4840 dc         1 CLA      0.065600
     96 H192       81.1869   60.9881   47.6954 dc         1 CLA      0.065600
     97 H191       81.8678   59.5275   47.0120 dc         1 CLA      0.065600
     98 H172       84.6749   60.2205   47.1453 dc         1 CLA      0.027600
     99 H171       84.9704   61.3261   45.7901 dc         1 CLA      0.027600
    100 H162       83.3732   59.8051   44.4786 dc         1 CLA      0.002900
    101 H161       83.6024   58.5928   45.6745 dc         1 CLA      0.002900
    102 H152       85.8915   58.4602   45.3666 dc         1 CLA      0.029100
    103 H151       86.0073   59.8038   44.1512 dc         1 CLA      0.029100
    104 H143       84.9782   55.8582   43.0980 dc         1 CLA      0.063600
    105 H142       85.1333   56.3809   44.7025 dc         1 CLA      0.063600
    106 H141       83.6488   56.6856   43.8079 dc         1 CLA      0.063600
    107 H122       85.3247   59.3324   41.7006 dc         1 CLA      0.032500
    108 H121       83.8485   59.1206   42.4460 dc         1 CLA      0.032500
    109 H112       83.6583   58.1439   40.3030 dc         1 CLA      0.006600
    110 H111       83.6515   56.7381   41.2650 dc         1 CLA      0.006600
    111 H102       86.0661   56.1488   40.9856 dc         1 CLA      0.024100
    112 H101       86.1791   57.6019   40.0861 dc         1 CLA      0.024100
    113 HHD        72.1791   56.5503   39.8774 da         1 CLA      0.174300
    114 HHC        76.2866   59.8892   43.2850 da         1 CLA      0.136800
    115 HHB        80.5308   59.8254   38.5777 da         1 CLA      0.138300
    116 HBD        76.0117   56.1886   34.2380 dc         1 CLA      0.107700
    117 HAB        77.7561   61.6943   43.6474 da         1 CLA      0.155200
    118 H93        86.6016   54.9867   37.5952 dc         1 CLA      0.069500
    119 H92        87.3988   56.2140   38.5327 dc         1 CLA      0.069500
    120 H91        86.7527   54.7087   39.2852 dc         1 CLA      0.069500
    121 H8         85.1030   56.9917   38.1414 dc         1 CLA      0.029300
    122 H72        83.2841   55.6706   39.1751 dc         1 CLA      0.044400
    123 H71        84.2402   54.5312   39.8084 dc         1 CLA      0.044400
    124 H62        84.6108   53.4948   37.5208 dc         1 CLA      0.015600
    125 H61        83.7052   54.7795   36.8255 dc         1 CLA      0.015600
    126 H52        81.8299   54.0115   38.5564 dc         1 CLA      0.033200
    127 H51        82.8507   52.5918   38.7051 dc         1 CLA      0.033200
    128 H43        81.0142   51.0269   35.9864 dc         1 CLA      0.037000
    129 H42        82.3448   50.5839   36.9110 dc         1 CLA      0.037000
    130 H41        80.9543   51.0776   37.8500 dc         1 CLA      0.037000
    131 H3A        80.0285   58.9020   35.9722 dc         1 CLA      0.041100
    132 H2A        79.5578   55.9608   35.8893 dc         1 CLA      0.083100
    133 H2         80.4524   53.9025   36.0782 da         1 CLA      0.180900
    134 H18        82.4721   61.8175   45.7180 dc         1 CLA     -0.003900
    135 H13        86.3162   57.6666   43.0402 dc         1 CLA      0.019700
    136 H12        81.6452   53.3807   33.6987 dc         1 CLA      0.120400
    137 H11        82.9938   54.1181   34.5808 dc         1 CLA      0.120400
    138 C1         68.1401   60.5591   49.8957 Z1         2 LUT      0.509236
    139 C2         66.7678   60.2111   50.5724 Z2         2 LUT     -0.434695
    140 C3         65.8212   61.4147   50.8536 Z3         2 LUT      0.437453
    141 O3         65.5806   61.6473   52.2445 S1         2 LUT     -0.547129
    142 C4         66.3320   62.7469   50.2110 Z4         2 LUT     -0.468603
    143 C5         67.0295   62.5546   48.8862 Z5         2 LUT      0.279246
    144 C6         67.9376   61.5142   48.7643 Z6         2 LUT     -0.305473
    145 C7         68.2157   60.9847   47.4304 Z7         2 LUT      0.069402
    146 C8         68.9978   61.6897   46.5938 Z8         2 LUT     -0.191631
    147 C9         69.4441   61.3290   45.2428 Z9         2 LUT      0.196698
    148 C10        70.5186   62.0135   44.6576 Y1         2 LUT     -0.208611
    149 C11        71.2235   61.8035   43.4249 Y2         2 LUT      0.030784
    150 C12        72.4499   62.3603   43.1588 Y3         2 LUT     -0.220316
    151 C13        73.2769   62.2546   41.9617 Y4         2 LUT      0.215937
    152 C14        74.5605   62.7988   42.0621 Y5         2 LUT     -0.185793
    153 C15        75.6352   62.7935   41.0609 Y6         2 LUT     -0.057835
    154 C16        68.8506   59.1874   49.6084 Y7         2 LUT     -0.405615
    155 C17        69.0682   61.2698   51.0105 Y7         2 LUT     -0.405615
    156 C18        66.4316   63.4256   47.8121 Y9         2 LUT     -0.369639
    157 C19        68.8223   60.0214   44.6064 W1         2 LUT     -0.333362
    158 C20        72.7784   61.4936   40.7190 W2         2 LUT     -0.323439
    159 C21        87.5496   64.8293   35.3805 Z1         2 LUT      0.406104
    160 C22        88.4608   64.3939   34.2251 Z2         2 LUT     -0.404965
    161 C23        88.4458   65.3688   33.0657 Z3         2 LUT      0.391255
    162 O23        89.1890   64.8693   31.9284 S1         2 LUT     -0.528210
    163 C24        87.0659   65.9141   32.7823 W6         2 LUT     -0.258361
    164 C25        85.9805   65.9027   33.6160 Z5         2 LUT      0.133546
    165 C26        86.0596   65.1388   34.9245 W8         2 LUT     -0.147008
    166 C27        85.2033   65.7261   36.0911 Z7         2 LUT      0.023843
    167 C28        84.1156   65.0777   36.6222 Z8         2 LUT     -0.216987
    168 C29        83.1683   65.5611   37.6478 Z9         2 LUT      0.206524
    169 C30        82.0368   64.8118   37.9512 Y1         2 LUT     -0.215556
    170 C31        81.1235   64.9878   39.0391 Y2         2 LUT      0.025142
    171 C32        79.9180   64.3372   39.0732 Y3         2 LUT     -0.212209
    172 C33        79.0758   64.3083   40.2478 Y4         2 LUT      0.240937
    173 C34        77.9010   63.6012   40.1547 Y5         2 LUT     -0.218862
    174 C35        76.8218   63.4410   41.1649 Y6         2 LUT     -0.023547
    175 C36        88.2720   66.0759   36.0656 Y7         2 LUT     -0.393485
    176 C37        87.5632   63.6340   36.3366 Y7         2 LUT     -0.393485
    177 C38        84.7277   66.7070   33.2903 Y9         2 LUT     -0.387526
    178 C39        83.4784   66.8203   38.3472 W1         2 LUT     -0.322618
    179 C40        79.6598   64.7490   41.5645 W2         2 LUT     -0.358472
    180 H403       80.0570   65.7688   41.5342 R7         2 LUT      0.097720
    181 H402       79.0019   64.7976   42.4117 R7         2 LUT      0.097720
    182 H401       80.4989   64.0241   41.7952 R7         2 LUT      0.097720
    183 H393       82.8476   67.0476   39.2209 R4         2 LUT      0.082505
    184 H392       84.4449   66.7402   38.8744 R4         2 LUT      0.082505
    185 H391       83.4933   67.6291   37.6819 R4         2 LUT      0.082505
    186 H383       84.1711   67.1250   34.1625 R1         2 LUT      0.104030
    187 H382       84.9931   67.5600   32.6548 R1         2 LUT      0.104030
    188 H381       84.0038   66.0092   32.7946 R1         2 LUT      0.104030
    189 H373       88.5182   63.2997   36.7193 T4         2 LUT      0.089537
    190 H372       87.0145   63.9477   37.2005 T4         2 LUT      0.089537
    191 H371       87.0390   62.7815   35.9635 T4         2 LUT      0.089537
    192 H363       89.4032   65.9567   36.1764 T4         2 LUT      0.089537
    193 H362       88.0905   66.9938   35.5008 T4         2 LUT      0.089537
    194 H361       87.8154   66.1863   37.0574 T4         2 LUT      0.089537
    195 H222       89.4555   64.2964   34.6432 U2         2 LUT      0.127376
    196 H221       88.3498   63.3337   33.8675 U2         2 LUT      0.127376
    197 H203       72.2519   60.5890   40.8696 R7         2 LUT      0.087068
    198 H202       72.0588   62.1990   40.2771 R7         2 LUT      0.087068
    199 H201       73.5146   61.2163   39.9484 R7         2 LUT      0.087068
    200 H193       68.9073   60.0346   43.5272 R4         2 LUT      0.089716
    201 H192       69.4534   59.1357   44.8417 R4         2 LUT      0.089716
    202 H191       67.7166   59.9025   44.8189 R4         2 LUT      0.089716
    203 H183       66.0935   62.7792   46.9658 R1         2 LUT      0.094572
    204 H182       65.5742   64.0121   48.0517 R1         2 LUT      0.094572
    205 H181       67.2163   64.0903   47.4005 R1         2 LUT      0.094572
    206 H173       69.4593   60.5684   51.7490 T4         2 LUT      0.093752
    207 H172       69.9473   61.5578   50.4912 T4         2 LUT      0.093752
    208 H171       68.6351   62.0439   51.6325 T4         2 LUT      0.093752
    209 H163       68.2813   58.5952   48.9089 T4         2 LUT      0.093752
    210 H162       69.8059   59.4058   49.1891 T4         2 LUT      0.093752
    211 H161       69.0467   58.5131   50.4714 T4         2 LUT      0.093752
    212 HO3        66.3279   61.4829   52.8306 Q1         2 LUT      0.300121
    213 H8         69.3519   62.6211   46.9798 U7         2 LUT      0.080784
    214 H7         67.8833   59.9848   47.1622 U6         2 LUT      0.042190
    215 H42        65.4748   63.4419   50.2147 U5         2 LUT      0.145166
    216 H41        66.9469   63.3349   50.9005 U5         2 LUT      0.145166
    217 H35        77.0478   63.9526   42.1182 T3         2 LUT      0.077919
    218 H34        77.7278   62.9910   39.2047 T2         2 LUT      0.073626
    219 H32        79.6107   63.6459   38.2284 T1         2 LUT      0.092510
    220 H31        81.4072   65.5684   39.9044 U9         2 LUT      0.070048
    221 H30        81.6990   63.9733   37.4006 U8         2 LUT      0.085442
    222 H3         64.8546   61.2464   50.3150 U3         2 LUT     -0.031596
    223 H28        83.7993   64.2569   36.0570 U7         2 LUT      0.084728
    224 H27        85.4538   66.7862   36.3918 U6         2 LUT      0.087291
    225 H26        85.6093   64.1747   34.6662 Q6         2 LUT      0.075325
    226 H24        86.9241   66.3835   31.8382 Q5         2 LUT      0.094482
    227 H23        89.1018   66.2128   33.3809 U3         2 LUT     -0.024869
    228 H22        66.2542   59.5620   49.8275 U2         2 LUT      0.127376
    229 H21        66.8944   59.6762   51.5204 U2         2 LUT      0.127376
    230 H15        75.4039   62.2882   40.1401 T3         2 LUT      0.093200
    231 H14        74.8996   63.3600   42.9227 T2         2 LUT      0.068865
    232 H12        72.8883   62.9949   43.9232 T1         2 LUT      0.095507
    233 H11        70.7833   61.2021   42.6225 U9         2 LUT      0.068930
    234 H10        71.0536   62.7333   45.2306 U8         2 LUT      0.083911
    235 H1         88.6746   64.2607   31.3795 Q1         2 LUT      0.297311
@<TRIPOS>BOND
    1     6     1 1
    2     7     2 1
    3     8     3 1
    4     9     4 1
    5    11     4 1
    6    12     6 1
    7    13     9 1
    8    16     9 1
    9    25     5 1
   10    25    16 1
   11    26    10 1
   12    26    17 1
   13    27    18 1
   14    28    14 1
   15    28    19 1
   16    29    12 1
   17    30    13 1
   18    31    24 1
   19    32     1 1
   20    32    25 1
   21    33    21 1
   22    33    26 1
   23    34    22 1
   24    34    27 1
   25    35    23 1
   26    35    28 1
   27    36    12 1
   28    36    24 1
   29    37    13 1
   30    37    15 1
   31    38    31 1
   32    39    20 1
   33    39    32 1
   34    40     2 1
   35    40    33 1
   36    41     3 1
   37    41    34 1
   38    42     4 1
   39    42    35 1
   40    43    38 1
   41    44     5 1
   42    44    17 1
   43    44    39 1
   44    45    10 1
   45    45    18 1
   46    45    40 1
   47    46    19 1
   48    46    41 1
   49    47    14 1
   50    47    16 1
   51    47    42 1
   52    48    38 1
   53    49    48 1
   54    50    49 1
   55    51    50 1
   56    52    51 1
   57    53    51 1
   58    54    53 1
   59    55    54 1
   60    56    55 1
   61    57    56 1
   62    58    56 1
   63    59    58 1
   64    60    59 1
   65    61    60 1
   66    62    61 1
   67    63    61 1
   68    64    27 1
   69    64    46 1
   70    65     5 1
   71    65    10 1
   72    65    64 1
   73    65    14 1
   74    66    23 1
   75    67    23 1
   76    68    23 1
   77    69    22 1
   78    70    22 1
   79    71    22 1
   80    72    21 1
   81    73    21 1
   82    74    21 1
   83    75    20 1
   84    76    20 1
   85    77    20 1
   86    78    15 1
   87    79    15 1
   88    80    15 1
   89    81     8 1
   90    82     8 1
   91    83     8 1
   92    84     7 1
   93    85     7 1
   94    86     6 1
   95    87     6 1
   96    88     3 1
   97    89     3 1
   98    90     1 1
   99    91     1 1
  100    92    63 1
  101    93    63 1
  102    94    63 1
  103    95    62 1
  104    96    62 1
  105    97    62 1
  106    98    60 1
  107    99    60 1
  108   100    59 1
  109   101    59 1
  110   102    58 1
  111   103    58 1
  112   104    57 1
  113   105    57 1
  114   106    57 1
  115   107    55 1
  116   108    55 1
  117   109    54 1
  118   110    54 1
  119   111    53 1
  120   112    53 1
  121   113    19 1
  122   114    18 1
  123   115    17 1
  124   116     9 1
  125   117     2 1
  126   118    52 1
  127   119    52 1
  128   120    52 1
  129   121    51 1
  130   122    50 1
  131   123    50 1
  132   124    49 1
  133   125    49 1
  134   126    48 1
  135   127    48 1
  136   128    43 1
  137   129    43 1
  138   130    43 1
  139   131    39 1
  140   132    32 1
  141   133    31 1
  142   134    61 1
  143   135    56 1
  144   136    24 1
  145   137    24 1
  146   139   138 1
  147   140   139 1
  148   141   140 1
  149   142   140 1
  150   143   142 1
  151   144   138 1
  152   144   143 1
  153   145   144 1
  154   146   145 1
  155   147   146 1
  156   148   147 1
  157   149   148 1
  158   150   149 1
  159   151   150 1
  160   152   151 1
  161   153   152 1
  162   154   138 1
  163   155   138 1
  164   156   143 1
  165   157   147 1
  166   158   151 1
  167   160   159 1
  168   161   160 1
  169   162   161 1
  170   163   161 1
  171   164   163 1
  172   165   159 1
  173   165   164 1
  174   166   165 1
  175   167   166 1
  176   168   167 1
  177   169   168 1
  178   170   169 1
  179   171   170 1
  180   172   171 1
  181   173   172 1
  182   174   153 1
  183   174   173 1
  184   175   159 1
  185   176   159 1
  186   177   164 1
  187   178   168 1
  188   179   172 1
  189   180   179 1
  190   181   179 1
  191   182   179 1
  192   183   178 1
  193   184   178 1
  194   185   178 1
  195   186   177 1
  196   187   177 1
  197   188   177 1
  198   189   176 1
  199   190   176 1
  200   191   176 1
  201   192   175 1
  202   193   175 1
  203   194   175 1
  204   195   160 1
  205   196   160 1
  206   197   158 1
  207   198   158 1
  208   199   158 1
  209   200   157 1
  210   201   157 1
  211   202   157 1
  212   203   156 1
  213   204   156 1
  214   205   156 1
  215   206   155 1
  216   207   155 1
  217   208   155 1
  218   209   154 1
  219   210   154 1
  220   211   154 1
  221   212   141 1
  222   213   146 1
  223   214   145 1
  224   215   142 1
  225   216   142 1
  226   217   174 1
  227   218   173 1
  228   219   171 1
  229   220   170 1
  230   221   169 1
  231   222   140 1
  232   223   167 1
  233   224   166 1
  234   225   165 1
  235   226   163 1
  236   227   161 1
  237   228   139 1
  238   229   139 1
  239   230   153 1
  240   231   152 1
  241   232   150 1
  242   233   149 1
  243   234   148 1
  244   235   162 1
  245   65    153 1
  246   65    174 1
@<TRIPOS>SUBSTRUCTURE
      1 CLA               1 ****               0 ****  **** 
      2 LUT             138 ****               0 ****  **** 
