@<TRIPOS>MOLECULE
Cpptraj generated mol2 file.
  235   246     2     0     0
SMALL
USER_CHARGES


@<TRIPOS>ATOM
      1 CAA        80.4976   58.9512   34.0682 a2         1 CLA     -0.055900
      2 CAB        80.2880   62.4995   43.1932 c8         1 CLA     -0.148500
      3 CAC        73.3679   58.4780   42.2744 a2         1 CLA     -0.012600
      4 CAD        76.5876   55.9123   35.3975 ck         1 CLA      0.398800
      5 NA         79.3896   59.2968   37.2997 ns         1 CLA     -0.225500
      6 CBA        81.8435   58.9774   33.2626 a2         1 CLA     -0.135000
      7 CBB        81.0633   63.5246   43.5954 c0         1 CLA     -0.395200
      8 CBC        73.4738   56.9811   42.6874 a3         1 CLA     -0.037700
      9 CBD        78.0193   56.5909   35.0473 a1         1 CLA     -0.053900
     10 NB         79.1857   60.7980   40.0913 nm         1 CLA     -0.295700
     11 OBD        76.0659   54.9234   34.8891 o2         1 CLA     -0.494600
     12 CGA        82.3238   57.5739   32.9867 c4         1 CLA      0.827000
     13 CGD        79.0262   55.4746   34.9526 c4         1 CLA      0.655300
     14 ND         76.5547   58.5525   37.8498 nm         1 CLA     -0.291600
     15 CED        79.9032   53.4175   35.8710 a3         1 CLA      0.005400
     16 CHA        78.2365   57.6388   36.1728 cs         1 CLA     -0.123800
     17 CHB        81.0920   60.6218   38.5486 aa         1 CLA     -0.291900
     18 CHC        77.7011   61.0398   42.0853 aa         1 CLA     -0.090400
     19 CHD        74.6685   58.2993   39.4137 aa         1 CLA     -0.052000
     20 CMA        82.9522   58.9039   36.6879 a3         1 CLA     -0.230700
     21 CMB        82.6124   62.1260   40.8857 a3         1 CLA     -0.180800
     22 CMC        75.2154   60.3583   43.9894 a3         1 CLA     -0.134000
     23 CMD        73.6944   56.1906   37.2465 a3         1 CLA     -0.141100
     24 C1         83.0664   55.7192   34.3257 a2         1 CLA      0.023000
     25 C1A        79.3310   58.4153   36.2996 ac         1 CLA     -0.015100
     26 C1B        80.4801   61.0164   39.7798 cr         1 CLA      0.054700
     27 C1C        76.5888   60.3138   41.7452 cn         1 CLA     -0.005600
     28 C1D        75.3160   57.9986   38.1961 ap         1 CLA     -0.047300
     29 O1A        81.9627   56.8236   32.0544 o2         1 CLA     -0.610800
     30 O1D        79.7387   55.3001   33.9913 o2         1 CLA     -0.558200
     31 C2         84.0922   55.5125   35.3994 c8         1 CLA     -0.325100
     32 C2A        80.6721   58.4497   35.5479 a1         1 CLA      0.098600
     33 C2B        81.1772   61.7352   40.8376 cb         1 CLA      0.088500
     34 C2C        75.4292   59.9376   42.5831 cb         1 CLA      0.053700
     35 C2D        74.9457   56.9805   37.2289 cb         1 CLA      0.058900
     36 O2A        82.9725   57.1602   34.1076 o1         1 CLA     -0.437200
     37 O2D        79.1232   54.6851   36.0622 o1         1 CLA     -0.357600
     38 C3         84.9650   54.4609   35.4748 c5         1 CLA      0.031200
     39 C3A        81.5397   59.4310   36.2649 a1         1 CLA      0.166800
     40 C3B        80.1761   61.8418   41.9258 cb         1 CLA      0.035000
     41 C3C        74.6674   59.1036   41.8008 cb         1 CLA     -0.089900
     42 C3D        76.0351   56.7757   36.4824 cb         1 CLA     -0.035900
     43 C4         84.6428   53.3539   36.4361 a3         1 CLA     -0.053300
     44 C4A        80.6335   59.7981   37.4679 ac         1 CLA      0.001800
     45 C4B        78.9423   61.2713   41.3602 cn         1 CLA     -0.020900
     46 C4C        75.2595   59.0282   40.4746 cr         1 CLA     -0.044400
     47 C4D        76.9915   57.7245   36.8407 c6         1 CLA     -0.046000
     48 C5         86.4598   54.8117   35.0715 a2         1 CLA     -0.070400
     49 C6         87.0065   56.0832   35.6534 a2         1 CLA      0.043900
     50 C7         86.8733   56.1158   37.1502 a2         1 CLA     -0.150000
     51 C8         86.8545   57.5060   37.9210 a1         1 CLA      0.064200
     52 C9         88.1789   58.2121   37.6333 a3         1 CLA     -0.259300
     53 C10        86.5034   57.2743   39.4597 a2         1 CLA     -0.071900
     54 C11        86.3749   58.5531   40.3649 a2         1 CLA      0.014500
     55 C12        86.3417   58.0177   41.8490 a2         1 CLA     -0.112100
     56 C13        86.5537   59.1239   42.9840 a1         1 CLA      0.089200
     57 C14        87.8749   60.0123   42.8513 a3         1 CLA     -0.239100
     58 C15        86.5669   58.5362   44.4590 a2         1 CLA     -0.102200
     59 C16        85.2244   58.0020   44.9242 a2         1 CLA      0.023900
     60 C17        85.0932   57.7478   46.4694 a2         1 CLA     -0.105700
     61 C18        85.4384   58.8818   47.4449 a1         1 CLA      0.206800
     62 C19        84.5747   60.1469   47.3055 a3         1 CLA     -0.280100
     63 C20        85.3868   58.3281   48.8539 a3         1 CLA     -0.280100
     64 NC         76.3881   59.7552   40.4579 nx         1 CLA     -0.309200
     65 MG         77.8313   59.7592   38.8551 mg         1 CLA      0.895000
     66 HMD3       73.6573   55.3754   37.9466 dc         1 CLA      0.064300
     67 HMD2       72.9264   56.8945   37.5452 dc         1 CLA      0.064300
     68 HMD1       73.4457   55.8843   36.2382 dc         1 CLA      0.064300
     69 HMC3       74.1943   60.7263   44.1426 dc         1 CLA      0.052100
     70 HMC2       75.5413   59.5095   44.5376 dc         1 CLA      0.052100
     71 HMC1       75.9034   61.1465   44.2073 dc         1 CLA      0.052100
     72 HMB3       82.4381   63.2078   41.0924 dc         1 CLA      0.063600
     73 HMB2       83.2569   61.8325   41.6423 dc         1 CLA      0.063600
     74 HMB1       83.1164   61.9693   39.9139 dc         1 CLA      0.063600
     75 HMA3       82.8007   57.9563   37.2302 dc         1 CLA      0.058300
     76 HMA2       83.6554   58.6535   35.8765 dc         1 CLA      0.058300
     77 HMA1       83.4960   59.5870   37.3143 dc         1 CLA      0.058300
     78 HED3       79.5856   52.8813   34.9052 dc         1 CLA      0.079300
     79 HED2       80.9395   53.7543   35.8612 dc         1 CLA      0.079300
     80 HED1       79.8113   52.7659   36.7518 dc         1 CLA      0.079300
     81 HBC3       73.9991   56.5691   41.8630 dc         1 CLA      0.016300
     82 HBC2       73.9544   56.9009   43.6980 dc         1 CLA      0.016300
     83 HBC1       72.4076   56.6000   42.6684 dc         1 CLA      0.016300
     84 HBB2       80.8776   63.9056   44.6632 da         1 CLA      0.183000
     85 HBB1       81.7876   64.1076   43.0508 da         1 CLA      0.183000
     86 HBA2       81.8316   59.4103   32.2969 dc         1 CLA      0.029400
     87 HBA1       82.6571   59.4101   33.7689 dc         1 CLA      0.029400
     88 HAC2       73.0700   59.0554   43.0860 dc         1 CLA      0.029300
     89 HAC1       72.5895   58.5202   41.5186 dc         1 CLA      0.029300
     90 HAA2       79.7370   58.3429   33.6157 dc         1 CLA      0.028700
     91 HAA1       80.2127   59.9742   34.1527 dc         1 CLA      0.028700
     92 H203       84.3729   58.2300   49.2214 dc         1 CLA      0.065600
     93 H202       85.9134   57.3656   48.9465 dc         1 CLA      0.065600
     94 H201       85.9423   59.0522   49.4508 dc         1 CLA      0.065600
     95 H193       83.4591   59.9113   47.2805 dc         1 CLA      0.065600
     96 H192       84.5698   60.7055   48.2317 dc         1 CLA      0.065600
     97 H191       84.9186   60.7798   46.4789 dc         1 CLA      0.065600
     98 H172       84.0530   57.3301   46.5542 dc         1 CLA      0.027600
     99 H171       85.7576   56.9486   46.6626 dc         1 CLA      0.027600
    100 H162       84.4664   58.6476   44.5035 dc         1 CLA      0.002900
    101 H161       85.1085   56.9011   44.5324 dc         1 CLA      0.002900
    102 H152       87.3995   57.8641   44.5763 dc         1 CLA      0.029100
    103 H151       86.7854   59.3167   45.1585 dc         1 CLA      0.029100
    104 H143       87.9541   60.4591   41.8859 dc         1 CLA      0.063600
    105 H142       87.7224   60.7901   43.5834 dc         1 CLA      0.063600
    106 H141       88.8132   59.4979   43.0159 dc         1 CLA      0.063600
    107 H122       85.4388   57.4543   42.1490 dc         1 CLA      0.032500
    108 H121       87.1814   57.3329   42.0308 dc         1 CLA      0.032500
    109 H112       87.2518   59.1203   40.3069 dc         1 CLA      0.006600
    110 H111       85.5237   59.2081   40.1663 dc         1 CLA      0.006600
    111 H102       85.6435   56.6259   39.6176 dc         1 CLA      0.024100
    112 H101       87.2582   56.5978   39.8848 dc         1 CLA      0.024100
    113 HHD        73.7251   57.8621   39.6049 da         1 CLA      0.174300
    114 HHC        77.6939   61.4989   43.0551 da         1 CLA      0.136800
    115 HHB        82.0208   61.1227   38.4538 da         1 CLA      0.138300
    116 HBD        77.9265   57.0943   34.1259 dc         1 CLA      0.107700
    117 HAB        79.6555   62.1314   43.9635 da         1 CLA      0.155200
    118 H93        88.9536   58.0131   38.3956 dc         1 CLA      0.069500
    119 H92        88.4825   57.9852   36.6383 dc         1 CLA      0.069500
    120 H91        87.9533   59.2981   37.6151 dc         1 CLA      0.069500
    121 H8         85.9638   58.0058   37.6155 dc         1 CLA      0.029300
    122 H72        85.9381   55.6628   37.4281 dc         1 CLA      0.044400
    123 H71        87.6508   55.5380   37.6199 dc         1 CLA      0.044400
    124 H62        88.0086   56.3358   35.3529 dc         1 CLA      0.015600
    125 H61        86.4633   56.8668   35.3261 dc         1 CLA      0.015600
    126 H52        87.1718   53.9758   35.3068 dc         1 CLA      0.033200
    127 H51        86.2942   54.9785   33.9966 dc         1 CLA      0.033200
    128 H43        85.5667   53.0111   36.9325 dc         1 CLA      0.037000
    129 H42        83.8169   53.6275   37.1490 dc         1 CLA      0.037000
    130 H41        84.2288   52.5195   35.8278 dc         1 CLA      0.037000
    131 H3A        81.6311   60.3721   35.7507 dc         1 CLA      0.041100
    132 H2A        81.1935   57.4724   35.5374 dc         1 CLA      0.083100
    133 H2         84.1164   56.2438   36.1599 da         1 CLA      0.180900
    134 H18        86.4793   59.0969   47.3456 dc         1 CLA     -0.003900
    135 H13        85.7597   59.7905   42.7002 dc         1 CLA      0.019700
    136 H12        82.1309   55.2238   34.5222 dc         1 CLA      0.120400
    137 H11        83.5376   55.3017   33.4361 dc         1 CLA      0.120400
    138 C1         69.7065   61.7689   49.5686 Z1         2 LUT      0.509236
    139 C2         68.2613   61.5039   50.1410 Z2         2 LUT     -0.434695
    140 C3         67.4485   62.7946   50.4999 Z3         2 LUT      0.437453
    141 O3         67.4870   63.1698   51.8430 S1         2 LUT     -0.547129
    142 C4         67.8866   64.0514   49.7202 Z4         2 LUT     -0.468603
    143 C5         68.7059   63.7832   48.5097 Z5         2 LUT      0.279246
    144 C6         69.6083   62.7840   48.4251 Z6         2 LUT     -0.305473
    145 C7         69.9479   62.3262   47.1053 Z7         2 LUT      0.069402
    146 C8         71.1208   62.4913   46.5934 Z8         2 LUT     -0.191631
    147 C9         71.6557   62.2799   45.1560 Z9         2 LUT      0.196698
    148 C10        72.6979   63.0113   44.7468 Y1         2 LUT     -0.208611
    149 C11        73.3964   63.1396   43.4623 Y2         2 LUT      0.030784
    150 C12        74.5541   63.8793   43.2831 Y3         2 LUT     -0.220316
    151 C13        75.3566   63.9327   42.0187 Y4         2 LUT      0.215937
    152 C14        76.5967   64.3720   42.1448 Y5         2 LUT     -0.185793
    153 C15        77.6627   64.3511   41.1292 Y6         2 LUT     -0.057835
    154 C16        70.1409   60.2556   49.2201 Y7         2 LUT     -0.405615
    155 C17        70.4439   62.5267   50.6850 Y7         2 LUT     -0.405615
    156 C18        68.0910   64.5817   47.3796 Y9         2 LUT     -0.369639
    157 C19        70.9664   61.3781   44.1482 W1         2 LUT     -0.333362
    158 C20        74.7790   63.3844   40.8044 W2         2 LUT     -0.323439
    159 C21        89.0136   66.3856   34.8792 Z1         2 LUT      0.406104
    160 C22        89.5338   65.7902   33.5235 Z2         2 LUT     -0.404965
    161 C23        89.3952   66.7196   32.2954 Z3         2 LUT      0.391255
    162 O23        89.5913   65.9321   31.1379 S1         2 LUT     -0.528210
    163 C24        88.1019   67.4955   32.2797 W6         2 LUT     -0.258361
    164 C25        87.2291   67.5851   33.2576 Z5         2 LUT      0.133546
    165 C26        87.4864   66.8141   34.6019 W8         2 LUT     -0.147008
    166 C27        86.8486   67.5128   35.7896 Z7         2 LUT      0.023843
    167 C28        85.6562   66.9756   36.2946 Z8         2 LUT     -0.216987
    168 C29        84.8182   67.4285   37.3680 Z9         2 LUT      0.206524
    169 C30        83.7338   66.6448   37.8523 Y1         2 LUT     -0.215556
    170 C31        82.9243   66.7447   39.0071 Y2         2 LUT      0.025142
    171 C32        81.9169   65.8759   39.2623 Y3         2 LUT     -0.212209
    172 C33        80.9944   65.7735   40.4172 Y4         2 LUT      0.240937
    173 C34        79.8826   65.0059   40.2937 Y5         2 LUT     -0.218862
    174 C35        78.8441   65.0427   41.2883 Y6         2 LUT     -0.023547
    175 C36        90.0712   67.5378   35.2708 Y7         2 LUT     -0.393485
    176 C37        89.2577   65.3315   35.9891 Y7         2 LUT     -0.393485
    177 C38        85.8660   68.2555   33.0926 Y9         2 LUT     -0.387526
    178 C39        85.2029   68.6205   38.2415 W1         2 LUT     -0.322618
    179 C40        81.3048   66.5943   41.5915 W2         2 LUT     -0.358472
    180 H403       80.7598   66.5272   42.5183 R7         2 LUT      0.097720
    181 H402       82.3470   66.6230   41.8267 R7         2 LUT      0.097720
    182 H401       81.0844   67.5996   41.3163 R7         2 LUT      0.097720
    183 H393       85.8719   68.3419   39.0498 R4         2 LUT      0.082505
    184 H392       85.6671   69.4244   37.7194 R4         2 LUT      0.082505
    185 H391       84.3827   69.1134   38.7188 R4         2 LUT      0.082505
    186 H383       85.6013   68.5964   32.0532 R1         2 LUT      0.104030
    187 H382       85.0846   67.4747   33.3153 R1         2 LUT      0.104030
    188 H381       85.8939   69.1491   33.7749 R1         2 LUT      0.104030
    189 H373       90.3293   65.0407   36.1144 T4         2 LUT      0.089537
    190 H372       89.0070   65.8180   36.9892 T4         2 LUT      0.089537
    191 H371       88.6708   64.3989   35.9928 T4         2 LUT      0.089537
    192 H363       89.9175   68.3432   34.5871 T4         2 LUT      0.089537
    193 H362       89.7927   67.9695   36.2146 T4         2 LUT      0.089537
    194 H361       91.0830   67.2612   35.4409 T4         2 LUT      0.089537
    195 H222       90.6348   65.6242   33.5124 U2         2 LUT      0.127376
    196 H221       88.9574   64.8831   33.3003 U2         2 LUT      0.127376
    197 H203       74.9003   62.3234   40.8347 R7         2 LUT      0.087068
    198 H202       73.7295   63.5473   40.6957 R7         2 LUT      0.087068
    199 H201       75.2321   63.7325   39.9101 R7         2 LUT      0.087068
    200 H193       70.7007   61.7452   43.1007 R4         2 LUT      0.089716
    201 H192       71.4985   60.3641   44.0582 R4         2 LUT      0.089716
    202 H191       70.1217   60.8889   44.6211 R4         2 LUT      0.089716
    203 H183       67.5178   63.9067   46.7290 R1         2 LUT      0.094572
    204 H182       67.3178   65.2823   47.6940 R1         2 LUT      0.094572
    205 H181       68.8293   65.0813   46.7954 R1         2 LUT      0.094572
    206 H173       71.3576   62.8649   50.3001 T4         2 LUT      0.093752
    207 H172       70.0072   63.4592   51.0511 T4         2 LUT      0.093752
    208 H171       70.7174   61.9161   51.5005 T4         2 LUT      0.093752
    209 H163       71.2008   60.1554   49.0058 T4         2 LUT      0.093752
    210 H162       69.8592   59.6178   50.1379 T4         2 LUT      0.093752
    211 H161       69.6159   59.8279   48.3997 T4         2 LUT      0.093752
    212 HO3        66.9591   62.5897   52.3926 Q1         2 LUT      0.300121
    213 H8         71.8586   62.9816   47.1802 U7         2 LUT      0.080784
    214 H7         69.0630   61.9951   46.5584 U6         2 LUT      0.042190
    215 H42        67.0222   64.6312   49.5178 U5         2 LUT      0.145166
    216 H41        68.3588   64.8149   50.3218 U5         2 LUT      0.145166
    217 H35        78.9117   65.6031   42.2415 T3         2 LUT      0.077919
    218 H34        79.6595   64.4589   39.3437 T2         2 LUT      0.073626
    219 H32        81.7252   65.2138   38.4582 T1         2 LUT      0.092510
    220 H31        83.1076   67.5828   39.7063 U9         2 LUT      0.070048
    221 H30        83.5058   65.7343   37.2640 U8         2 LUT      0.085442
    222 H3         66.4817   62.7203   50.0293 U3         2 LUT     -0.031596
    223 H28        85.3405   65.9972   35.9254 U7         2 LUT      0.084728
    224 H27        87.4190   68.3497   36.1985 U6         2 LUT      0.087291
    225 H26        86.9774   65.8524   34.3177 Q6         2 LUT      0.075325
    226 H24        87.9174   68.0581   31.3772 Q5         2 LUT      0.094482
    227 H23        90.2333   67.4503   32.4977 U3         2 LUT     -0.024869
    228 H22        67.6455   61.1068   49.3166 U2         2 LUT      0.127376
    229 H21        68.3114   60.8367   51.0051 U2         2 LUT      0.127376
    230 H15        77.5195   63.8142   40.2108 T3         2 LUT      0.093200
    231 H14        76.9237   64.7199   43.1556 T2         2 LUT      0.068865
    232 H12        75.0026   64.3151   44.1644 T1         2 LUT      0.095507
    233 H11        72.9631   62.5754   42.6587 U9         2 LUT      0.068930
    234 H10        73.1263   63.7668   45.4177 U8         2 LUT      0.083911
    235 H1         89.8034   66.4446   30.3310 Q1         2 LUT      0.297311
@<TRIPOS>BOND
    1     6     1 1
    2     7     2 1
    3     8     3 1
    4     9     4 1
    5    11     4 1
    6    12     6 1
    7    13     9 1
    8    16     9 1
    9    25     5 1
   10    25    16 1
   11    26    10 1
   12    26    17 1
   13    27    18 1
   14    28    14 1
   15    28    19 1
   16    29    12 1
   17    30    13 1
   18    31    24 1
   19    32     1 1
   20    32    25 1
   21    33    21 1
   22    33    26 1
   23    34    22 1
   24    34    27 1
   25    35    23 1
   26    35    28 1
   27    36    12 1
   28    36    24 1
   29    37    13 1
   30    37    15 1
   31    38    31 1
   32    39    20 1
   33    39    32 1
   34    40     2 1
   35    40    33 1
   36    41     3 1
   37    41    34 1
   38    42     4 1
   39    42    35 1
   40    43    38 1
   41    44     5 1
   42    44    17 1
   43    44    39 1
   44    45    10 1
   45    45    18 1
   46    45    40 1
   47    46    19 1
   48    46    41 1
   49    47    14 1
   50    47    16 1
   51    47    42 1
   52    48    38 1
   53    49    48 1
   54    50    49 1
   55    51    50 1
   56    52    51 1
   57    53    51 1
   58    54    53 1
   59    55    54 1
   60    56    55 1
   61    57    56 1
   62    58    56 1
   63    59    58 1
   64    60    59 1
   65    61    60 1
   66    62    61 1
   67    63    61 1
   68    64    27 1
   69    64    46 1
   70    65     5 1
   71    65    10 1
   72    65    64 1
   73    65    14 1
   74    66    23 1
   75    67    23 1
   76    68    23 1
   77    69    22 1
   78    70    22 1
   79    71    22 1
   80    72    21 1
   81    73    21 1
   82    74    21 1
   83    75    20 1
   84    76    20 1
   85    77    20 1
   86    78    15 1
   87    79    15 1
   88    80    15 1
   89    81     8 1
   90    82     8 1
   91    83     8 1
   92    84     7 1
   93    85     7 1
   94    86     6 1
   95    87     6 1
   96    88     3 1
   97    89     3 1
   98    90     1 1
   99    91     1 1
  100    92    63 1
  101    93    63 1
  102    94    63 1
  103    95    62 1
  104    96    62 1
  105    97    62 1
  106    98    60 1
  107    99    60 1
  108   100    59 1
  109   101    59 1
  110   102    58 1
  111   103    58 1
  112   104    57 1
  113   105    57 1
  114   106    57 1
  115   107    55 1
  116   108    55 1
  117   109    54 1
  118   110    54 1
  119   111    53 1
  120   112    53 1
  121   113    19 1
  122   114    18 1
  123   115    17 1
  124   116     9 1
  125   117     2 1
  126   118    52 1
  127   119    52 1
  128   120    52 1
  129   121    51 1
  130   122    50 1
  131   123    50 1
  132   124    49 1
  133   125    49 1
  134   126    48 1
  135   127    48 1
  136   128    43 1
  137   129    43 1
  138   130    43 1
  139   131    39 1
  140   132    32 1
  141   133    31 1
  142   134    61 1
  143   135    56 1
  144   136    24 1
  145   137    24 1
  146   139   138 1
  147   140   139 1
  148   141   140 1
  149   142   140 1
  150   143   142 1
  151   144   138 1
  152   144   143 1
  153   145   144 1
  154   146   145 1
  155   147   146 1
  156   148   147 1
  157   149   148 1
  158   150   149 1
  159   151   150 1
  160   152   151 1
  161   153   152 1
  162   154   138 1
  163   155   138 1
  164   156   143 1
  165   157   147 1
  166   158   151 1
  167   160   159 1
  168   161   160 1
  169   162   161 1
  170   163   161 1
  171   164   163 1
  172   165   159 1
  173   165   164 1
  174   166   165 1
  175   167   166 1
  176   168   167 1
  177   169   168 1
  178   170   169 1
  179   171   170 1
  180   172   171 1
  181   173   172 1
  182   174   153 1
  183   174   173 1
  184   175   159 1
  185   176   159 1
  186   177   164 1
  187   178   168 1
  188   179   172 1
  189   180   179 1
  190   181   179 1
  191   182   179 1
  192   183   178 1
  193   184   178 1
  194   185   178 1
  195   186   177 1
  196   187   177 1
  197   188   177 1
  198   189   176 1
  199   190   176 1
  200   191   176 1
  201   192   175 1
  202   193   175 1
  203   194   175 1
  204   195   160 1
  205   196   160 1
  206   197   158 1
  207   198   158 1
  208   199   158 1
  209   200   157 1
  210   201   157 1
  211   202   157 1
  212   203   156 1
  213   204   156 1
  214   205   156 1
  215   206   155 1
  216   207   155 1
  217   208   155 1
  218   209   154 1
  219   210   154 1
  220   211   154 1
  221   212   141 1
  222   213   146 1
  223   214   145 1
  224   215   142 1
  225   216   142 1
  226   217   174 1
  227   218   173 1
  228   219   171 1
  229   220   170 1
  230   221   169 1
  231   222   140 1
  232   223   167 1
  233   224   166 1
  234   225   165 1
  235   226   163 1
  236   227   161 1
  237   228   139 1
  238   229   139 1
  239   230   153 1
  240   231   152 1
  241   232   150 1
  242   233   149 1
  243   234   148 1
  244   235   162 1
  245   65    153 1
  246   65    174 1
@<TRIPOS>SUBSTRUCTURE
      1 CLA               1 ****               0 ****  **** 
      2 LUT             138 ****               0 ****  **** 
