@<TRIPOS>MOLECULE
Cpptraj generated mol2 file.
  235   246     2     0     0
SMALL
USER_CHARGES


@<TRIPOS>ATOM
      1 CAA        78.1232   59.1073   33.5397 a2         1 CLA     -0.055900
      2 CAB        78.2000   62.5526   42.6007 c8         1 CLA     -0.148500
      3 CAC        71.7944   58.2141   42.5391 a2         1 CLA     -0.012600
      4 CAD        73.8991   56.5467   34.5820 ck         1 CLA      0.398800
      5 NA         77.2246   59.3091   36.8726 ns         1 CLA     -0.225500
      6 CBA        79.4129   59.0458   32.6910 a2         1 CLA     -0.135000
      7 CBB        79.2733   62.9565   43.3163 c0         1 CLA     -0.395200
      8 CBC        71.7353   56.6883   42.2721 a3         1 CLA     -0.037700
      9 CBD        75.4634   56.8926   34.3659 a1         1 CLA     -0.053900
     10 NB         77.1761   60.6665   39.5440 nm         1 CLA     -0.295700
     11 OBD        73.2549   55.8747   33.8287 o2         1 CLA     -0.494600
     12 CGA        79.8761   57.5513   32.3194 c4         1 CLA      0.827000
     13 CGD        76.2752   55.6788   33.9191 c4         1 CLA      0.655300
     14 ND         74.4609   58.2662   37.5508 nm         1 CLA     -0.291600
     15 CED        76.6328   53.2342   34.1389 a3         1 CLA      0.005400
     16 CHA        75.8495   57.6904   35.5714 cs         1 CLA     -0.123800
     17 CHB        79.0845   60.5150   38.0196 aa         1 CLA     -0.291900
     18 CHC        75.7761   60.9869   41.5163 aa         1 CLA     -0.090400
     19 CHD        72.6719   58.0715   39.2749 aa         1 CLA     -0.052000
     20 CMA        80.7579   58.6120   36.0291 a3         1 CLA     -0.230700
     21 CMB        80.6297   62.1690   40.2854 a3         1 CLA     -0.180800
     22 CMC        73.8615   60.3055   43.7355 a3         1 CLA     -0.134000
     23 CMD        71.2587   56.5569   36.9007 a3         1 CLA     -0.141100
     24 C1         80.7056   55.4351   33.3028 a2         1 CLA      0.023000
     25 C1A        77.0062   58.4810   35.7399 ac         1 CLA     -0.015100
     26 C1B        78.4875   60.9588   39.2297 cr         1 CLA      0.054700
     27 C1C        74.6883   60.1364   41.2934 cn         1 CLA     -0.005600
     28 C1D        73.1899   57.8575   37.9294 ap         1 CLA     -0.047300
     29 O1A        79.6221   57.0034   31.2863 o2         1 CLA     -0.610800
     30 O1D        77.0749   55.6684   32.9692 o2         1 CLA     -0.558200
     31 C2         81.2918   54.9603   34.5777 c8         1 CLA     -0.325100
     32 C2A        78.3196   58.5026   34.9188 a1         1 CLA      0.098600
     33 C2B        79.1111   61.6924   40.3035 cb         1 CLA      0.088500
     34 C2C        73.7455   59.8661   42.2666 cb         1 CLA      0.053700
     35 C2D        72.6247   57.0103   36.8850 cb         1 CLA      0.058900
     36 O2A        80.6003   56.8873   33.2915 o1         1 CLA     -0.437200
     37 O2D        76.0009   54.5341   34.6115 o1         1 CLA     -0.357600
     38 C3         82.3471   54.1187   34.6174 c5         1 CLA      0.031200
     39 C3A        79.3375   59.3098   35.7530 a1         1 CLA      0.166800
     40 C3B        78.1223   61.8018   41.2911 cb         1 CLA      0.035000
     41 C3C        72.8929   58.9360   41.7576 cb         1 CLA     -0.089900
     42 C3D        73.6146   56.9769   35.9244 cb         1 CLA     -0.035900
     43 C4         82.2166   52.6204   34.8501 a3         1 CLA     -0.053300
     44 C4A        78.5495   59.7083   37.0156 ac         1 CLA      0.001800
     45 C4B        76.9343   61.1822   40.7793 cn         1 CLA     -0.020900
     46 C4C        73.2425   58.8773   40.3064 cr         1 CLA     -0.044400
     47 C4D        74.7342   57.6766   36.4258 c6         1 CLA     -0.046000
     48 C5         83.7946   54.5301   34.3792 a2         1 CLA     -0.070400
     49 C6         84.2437   55.9302   34.7253 a2         1 CLA      0.043900
     50 C7         83.9722   56.3194   36.2879 a2         1 CLA     -0.150000
     51 C8         84.3440   57.7112   36.8154 a1         1 CLA      0.064200
     52 C9         85.7877   58.1068   36.4015 a3         1 CLA     -0.259300
     53 C10        84.2981   57.7610   38.3347 a2         1 CLA     -0.071900
     54 C11        82.9756   57.4498   38.9248 a2         1 CLA      0.014500
     55 C12        83.0530   57.4486   40.4423 a2         1 CLA     -0.112100
     56 C13        81.7528   57.0322   41.1359 a1         1 CLA      0.089200
     57 C14        80.7554   58.1887   41.2345 a3         1 CLA     -0.239100
     58 C15        82.0860   56.4013   42.5760 a2         1 CLA     -0.102200
     59 C16        82.8106   57.3215   43.5594 a2         1 CLA      0.023900
     60 C17        82.9987   56.5796   44.9438 a2         1 CLA     -0.105700
     61 C18        83.7877   57.3262   46.0167 a1         1 CLA      0.206800
     62 C19        83.2904   58.7037   46.2769 a3         1 CLA     -0.280100
     63 C20        83.8765   56.3562   47.3016 a3         1 CLA     -0.280100
     64 NC         74.4237   59.5528   40.1105 nx         1 CLA     -0.309200
     65 MG         75.8060   59.5868   38.4002 mg         1 CLA      0.895000
     66 HMD3       71.2375   55.8606   36.1100 dc         1 CLA      0.064300
     67 HMD2       70.8969   56.1405   37.8627 dc         1 CLA      0.064300
     68 HMD1       70.6753   57.4257   36.5452 dc         1 CLA      0.064300
     69 HMC3       73.9878   61.3632   43.6821 dc         1 CLA      0.052100
     70 HMC2       73.0167   60.0787   44.3976 dc         1 CLA      0.052100
     71 HMC1       74.6872   59.7669   44.1164 dc         1 CLA      0.052100
     72 HMB3       81.2581   61.4498   40.7623 dc         1 CLA      0.063600
     73 HMB2       81.0782   62.3400   39.3150 dc         1 CLA      0.063600
     74 HMB1       80.7359   63.1460   40.7873 dc         1 CLA      0.063600
     75 HMA3       80.5353   57.7898   36.7252 dc         1 CLA      0.058300
     76 HMA2       81.2040   58.2966   35.1146 dc         1 CLA      0.058300
     77 HMA1       81.4793   59.2766   36.5717 dc         1 CLA      0.058300
     78 HED3       77.6247   53.1590   34.5192 dc         1 CLA      0.079300
     79 HED2       76.1424   52.3361   34.6009 dc         1 CLA      0.079300
     80 HED1       76.5320   53.2087   33.0525 dc         1 CLA      0.079300
     81 HBC3       71.2202   56.1518   43.1149 dc         1 CLA      0.016300
     82 HBC2       71.2511   56.4144   41.3265 dc         1 CLA      0.016300
     83 HBC1       72.6955   56.2490   42.3246 dc         1 CLA      0.016300
     84 HBB2       79.1542   63.4923   44.3242 da         1 CLA      0.183000
     85 HBB1       80.3219   62.7852   42.9190 da         1 CLA      0.183000
     86 HBA2       79.2176   59.5578   31.7027 dc         1 CLA      0.029400
     87 HBA1       80.2369   59.5092   33.1337 dc         1 CLA      0.029400
     88 HAC2       71.9533   58.3892   43.5934 dc         1 CLA      0.029300
     89 HAC1       70.7889   58.6166   42.3047 dc         1 CLA      0.029300
     90 HAA2       77.3536   58.6238   33.0285 dc         1 CLA      0.028700
     91 HAA1       77.8787   60.1583   33.6059 dc         1 CLA      0.028700
     92 H203       84.4716   56.8276   48.1416 dc         1 CLA      0.065600
     93 H202       82.9123   56.1686   47.7085 dc         1 CLA      0.065600
     94 H201       84.1883   55.3491   47.0040 dc         1 CLA      0.065600
     95 H193       82.1978   58.8481   46.2964 dc         1 CLA      0.065600
     96 H192       83.6864   59.0163   47.2383 dc         1 CLA      0.065600
     97 H191       83.7044   59.3055   45.4721 dc         1 CLA      0.065600
     98 H172       82.0809   56.4858   45.3935 dc         1 CLA      0.027600
     99 H171       83.4015   55.6090   44.8506 dc         1 CLA      0.027600
    100 H162       83.7414   57.4251   43.0973 dc         1 CLA      0.002900
    101 H161       82.3761   58.2559   43.6866 dc         1 CLA      0.002900
    102 H152       81.1823   56.1076   43.0539 dc         1 CLA      0.029100
    103 H151       82.7378   55.5185   42.2820 dc         1 CLA      0.029100
    104 H143       81.1709   59.0318   41.8543 dc         1 CLA      0.063600
    105 H142       80.5729   58.4748   40.1868 dc         1 CLA      0.063600
    106 H141       79.8022   57.7344   41.7583 dc         1 CLA      0.063600
    107 H122       83.8674   56.8697   40.8338 dc         1 CLA      0.032500
    108 H121       83.1806   58.4745   40.6445 dc         1 CLA      0.032500
    109 H112       82.1971   58.0903   38.5124 dc         1 CLA      0.006600
    110 H111       82.8527   56.4065   38.7097 dc         1 CLA      0.006600
    111 H102       85.0676   57.1203   38.7687 dc         1 CLA      0.024100
    112 H101       84.5201   58.8048   38.6094 dc         1 CLA      0.024100
    113 HHD        71.8090   57.4755   39.4939 da         1 CLA      0.174300
    114 HHC        75.8031   61.3166   42.5812 da         1 CLA      0.136800
    115 HHB        80.1722   60.7608   38.0222 da         1 CLA      0.138300
    116 HBD        75.6084   57.6302   33.5587 dc         1 CLA      0.107700
    117 HAB        77.2862   62.8756   42.9740 da         1 CLA      0.155200
    118 H93        86.0054   57.9659   35.2917 dc         1 CLA      0.069500
    119 H92        85.8116   59.1966   36.6112 dc         1 CLA      0.069500
    120 H91        86.6419   57.5864   36.9418 dc         1 CLA      0.069500
    121 H8         83.6023   58.4173   36.3521 dc         1 CLA      0.029300
    122 H72        82.9621   56.2497   36.6205 dc         1 CLA      0.044400
    123 H71        84.6326   55.6457   36.8742 dc         1 CLA      0.044400
    124 H62        85.3814   56.0580   34.5413 dc         1 CLA      0.015600
    125 H61        83.7624   56.6049   34.0122 dc         1 CLA      0.015600
    126 H52        84.3495   53.7212   34.8476 dc         1 CLA      0.033200
    127 H51        83.9956   54.5006   33.3338 dc         1 CLA      0.033200
    128 H43        82.5830   52.1037   33.9629 dc         1 CLA      0.037000
    129 H42        82.7200   52.3017   35.7297 dc         1 CLA      0.037000
    130 H41        81.1133   52.4084   34.9688 dc         1 CLA      0.037000
    131 H3A        79.4680   60.2915   35.2131 dc         1 CLA      0.041100
    132 H2A        78.5975   57.4079   34.7741 dc         1 CLA      0.083100
    133 H2         80.9811   55.3630   35.5183 da         1 CLA      0.180900
    134 H18        84.7684   57.4295   45.6152 dc         1 CLA     -0.003900
    135 H13        81.2878   56.1935   40.5550 dc         1 CLA      0.019700
    136 H12        79.7401   55.0102   33.2653 dc         1 CLA      0.120400
    137 H11        81.2662   55.0145   32.4732 dc         1 CLA      0.120400
    138 C1         68.2044   61.0569   49.5629 Z1         2 LUT      0.509236
    139 C2         66.7362   60.8602   49.9169 Z2         2 LUT     -0.434695
    140 C3         65.9264   62.0662   50.3981 Z3         2 LUT      0.437453
    141 O3         65.6346   62.2193   51.7929 S1         2 LUT     -0.547129
    142 C4         66.4066   63.4339   49.8793 Z4         2 LUT     -0.468603
    143 C5         67.2790   63.1878   48.6231 Z5         2 LUT      0.279246
    144 C6         68.2070   62.1993   48.5087 Z6         2 LUT     -0.305473
    145 C7         68.8386   61.8258   47.2227 Z7         2 LUT      0.069402
    146 C8         69.4857   62.5405   46.2587 Z8         2 LUT     -0.191631
    147 C9         69.9932   62.0906   44.9135 Z9         2 LUT      0.196698
    148 C10        70.8882   62.8855   44.1805 Y1         2 LUT     -0.208611
    149 C11        71.4856   62.8578   42.8951 Y2         2 LUT      0.030784
    150 C12        72.5511   63.7148   42.6669 Y3         2 LUT     -0.220316
    151 C13        73.4590   63.7719   41.6011 Y4         2 LUT      0.215937
    152 C14        74.5736   64.5734   41.7618 Y5         2 LUT     -0.185793
    153 C15        75.7283   64.6534   40.8813 Y6         2 LUT     -0.057835
    154 C16        68.6401   59.6101   49.1755 Y7         2 LUT     -0.405615
    155 C17        68.9403   61.4654   50.8598 Y7         2 LUT     -0.405615
    156 C18        66.7487   63.9787   47.4109 Y9         2 LUT     -0.369639
    157 C19        69.4703   60.7237   44.4140 W1         2 LUT     -0.333362
    158 C20        73.1371   62.9394   40.3656 W2         2 LUT     -0.323439
    159 C21        87.3457   65.4906   34.4348 Z1         2 LUT      0.406104
    160 C22        88.0668   64.9702   33.1423 Z2         2 LUT     -0.404965
    161 C23        88.0633   65.7624   31.9326 Z3         2 LUT      0.391255
    162 O23        88.5675   64.8877   30.8367 S1         2 LUT     -0.528210
    163 C24        86.8419   66.5638   31.7734 W6         2 LUT     -0.258361
    164 C25        85.8758   66.6872   32.7042 Z5         2 LUT      0.133546
    165 C26        85.8766   65.8678   34.0104 W8         2 LUT     -0.147008
    166 C27        85.1675   66.5262   35.1792 Z7         2 LUT      0.023843
    167 C28        84.0865   65.9339   35.8449 Z8         2 LUT     -0.216987
    168 C29        83.3232   66.4310   37.0270 Z9         2 LUT      0.206524
    169 C30        82.1066   65.8939   37.3688 Y1         2 LUT     -0.215556
    170 C31        81.3190   66.1527   38.5415 Y2         2 LUT      0.025142
    171 C32        80.2216   65.4220   38.8916 Y3         2 LUT     -0.212209
    172 C33        79.2836   65.6957   40.0276 Y4         2 LUT      0.240937
    173 C34        78.0470   65.1406   40.0721 Y5         2 LUT     -0.218862
    174 C35        77.0033   65.2255   41.0761 Y6         2 LUT     -0.023547
    175 C36        88.2417   66.7706   34.9165 Y7         2 LUT     -0.393485
    176 C37        87.4637   64.3110   35.3496 Y7         2 LUT     -0.393485
    177 C38        84.6377   67.5069   32.3329 Y9         2 LUT     -0.387526
    178 C39        83.9935   67.3418   38.0609 W1         2 LUT     -0.322618
    179 C40        79.5505   66.8006   40.9743 W2         2 LUT     -0.358472
    180 H403       79.1762   67.7126   40.5418 R7         2 LUT      0.097720
    181 H402       79.1692   66.6460   41.9703 R7         2 LUT      0.097720
    182 H401       80.5783   67.0295   41.2451 R7         2 LUT      0.097720
    183 H393       84.2332   66.7927   39.0204 R4         2 LUT      0.082505
    184 H392       84.9788   67.8187   37.7855 R4         2 LUT      0.082505
    185 H391       83.4095   68.1809   38.2850 R4         2 LUT      0.082505
    186 H383       84.8139   68.5049   31.9431 R1         2 LUT      0.104030
    187 H382       84.0979   66.9457   31.5667 R1         2 LUT      0.104030
    188 H381       84.0015   67.6825   33.2170 R1         2 LUT      0.104030
    189 H373       86.8393   64.3333   36.2513 T4         2 LUT      0.089537
    190 H372       87.2077   63.3955   34.8282 T4         2 LUT      0.089537
    191 H371       88.5094   64.1301   35.7395 T4         2 LUT      0.089537
    192 H363       89.1963   66.3773   35.1971 T4         2 LUT      0.089537
    193 H362       88.4730   67.5014   34.0944 T4         2 LUT      0.089537
    194 H361       87.8452   67.3868   35.7321 T4         2 LUT      0.089537
    195 H222       89.0806   64.7167   33.4371 U2         2 LUT      0.127376
    196 H221       87.7110   64.0052   32.8031 U2         2 LUT      0.127376
    197 H203       73.9562   62.9252   39.6306 R7         2 LUT      0.087068
    198 H202       73.0484   61.8878   40.5403 R7         2 LUT      0.087068
    199 H201       72.2434   63.2930   39.9326 R7         2 LUT      0.087068
    200 H193       69.7978   60.5840   43.3967 R4         2 LUT      0.089716
    201 H192       70.0036   59.9599   44.9897 R4         2 LUT      0.089716
    202 H191       68.4267   60.6336   44.4487 R4         2 LUT      0.089716
    203 H183       66.8184   65.0787   47.6534 R1         2 LUT      0.094572
    204 H182       67.2822   63.6692   46.4532 R1         2 LUT      0.094572
    205 H181       65.6410   63.8054   47.1736 R1         2 LUT      0.094572
    206 H173       68.7690   60.7573   51.6753 T4         2 LUT      0.093752
    207 H172       70.0065   61.4695   50.6560 T4         2 LUT      0.093752
    208 H171       68.8120   62.4578   51.2253 T4         2 LUT      0.093752
    209 H163       69.6818   59.6295   49.0662 T4         2 LUT      0.093752
    210 H162       68.4260   58.9092   49.9954 T4         2 LUT      0.093752
    211 H161       68.0873   59.2522   48.2594 T4         2 LUT      0.093752
    212 HO3        66.4358   62.0274   52.3279 Q1         2 LUT      0.300121
    213 H8         69.4581   63.6273   46.4511 U7         2 LUT      0.080784
    214 H7         68.8484   60.7664   46.9976 U6         2 LUT      0.042190
    215 H42        65.4522   63.9917   49.7306 U5         2 LUT      0.145166
    216 H41        67.0033   63.9686   50.6723 U5         2 LUT      0.145166
    217 H35        77.1940   65.6529   42.0051 T3         2 LUT      0.077919
    218 H34        77.6984   64.5218   39.2617 T2         2 LUT      0.073626
    219 H32        79.8995   64.6084   38.3313 T1         2 LUT      0.092510
    220 H31        81.5156   67.0086   39.1277 U9         2 LUT      0.070048
    221 H30        81.6559   65.2161   36.6411 U8         2 LUT      0.085442
    222 H3         64.9653   61.9550   49.8480 U3         2 LUT     -0.031596
    223 H28        83.5369   65.2423   35.1685 U7         2 LUT      0.084728
    224 H27        85.6347   67.4332   35.5891 U6         2 LUT      0.087291
    225 H26        85.3063   64.9529   33.8357 Q6         2 LUT      0.075325
    226 H24        86.7404   67.1550   30.8536 Q5         2 LUT      0.094482
    227 H23        88.7753   66.5870   32.1558 U3         2 LUT     -0.024869
    228 H22        66.2799   60.5729   48.9635 U2         2 LUT      0.127376
    229 H21        66.3946   59.9866   50.5339 U2         2 LUT      0.127376
    230 H15        75.7096   64.0802   39.9035 T3         2 LUT      0.093200
    231 H14        74.7368   64.9544   42.7626 T2         2 LUT      0.068865
    232 H12        72.7508   64.4046   43.4769 T1         2 LUT      0.095507
    233 H11        71.4095   61.9949   42.3094 U9         2 LUT      0.068930
    234 H10        71.1545   63.7771   44.7867 U8         2 LUT      0.083911
    235 H1         88.0502   65.0009   30.0389 Q1         2 LUT      0.297311
@<TRIPOS>BOND
    1     6     1 1
    2     7     2 1
    3     8     3 1
    4     9     4 1
    5    11     4 1
    6    12     6 1
    7    13     9 1
    8    16     9 1
    9    25     5 1
   10    25    16 1
   11    26    10 1
   12    26    17 1
   13    27    18 1
   14    28    14 1
   15    28    19 1
   16    29    12 1
   17    30    13 1
   18    31    24 1
   19    32     1 1
   20    32    25 1
   21    33    21 1
   22    33    26 1
   23    34    22 1
   24    34    27 1
   25    35    23 1
   26    35    28 1
   27    36    12 1
   28    36    24 1
   29    37    13 1
   30    37    15 1
   31    38    31 1
   32    39    20 1
   33    39    32 1
   34    40     2 1
   35    40    33 1
   36    41     3 1
   37    41    34 1
   38    42     4 1
   39    42    35 1
   40    43    38 1
   41    44     5 1
   42    44    17 1
   43    44    39 1
   44    45    10 1
   45    45    18 1
   46    45    40 1
   47    46    19 1
   48    46    41 1
   49    47    14 1
   50    47    16 1
   51    47    42 1
   52    48    38 1
   53    49    48 1
   54    50    49 1
   55    51    50 1
   56    52    51 1
   57    53    51 1
   58    54    53 1
   59    55    54 1
   60    56    55 1
   61    57    56 1
   62    58    56 1
   63    59    58 1
   64    60    59 1
   65    61    60 1
   66    62    61 1
   67    63    61 1
   68    64    27 1
   69    64    46 1
   70    65     5 1
   71    65    10 1
   72    65    64 1
   73    65    14 1
   74    66    23 1
   75    67    23 1
   76    68    23 1
   77    69    22 1
   78    70    22 1
   79    71    22 1
   80    72    21 1
   81    73    21 1
   82    74    21 1
   83    75    20 1
   84    76    20 1
   85    77    20 1
   86    78    15 1
   87    79    15 1
   88    80    15 1
   89    81     8 1
   90    82     8 1
   91    83     8 1
   92    84     7 1
   93    85     7 1
   94    86     6 1
   95    87     6 1
   96    88     3 1
   97    89     3 1
   98    90     1 1
   99    91     1 1
  100    92    63 1
  101    93    63 1
  102    94    63 1
  103    95    62 1
  104    96    62 1
  105    97    62 1
  106    98    60 1
  107    99    60 1
  108   100    59 1
  109   101    59 1
  110   102    58 1
  111   103    58 1
  112   104    57 1
  113   105    57 1
  114   106    57 1
  115   107    55 1
  116   108    55 1
  117   109    54 1
  118   110    54 1
  119   111    53 1
  120   112    53 1
  121   113    19 1
  122   114    18 1
  123   115    17 1
  124   116     9 1
  125   117     2 1
  126   118    52 1
  127   119    52 1
  128   120    52 1
  129   121    51 1
  130   122    50 1
  131   123    50 1
  132   124    49 1
  133   125    49 1
  134   126    48 1
  135   127    48 1
  136   128    43 1
  137   129    43 1
  138   130    43 1
  139   131    39 1
  140   132    32 1
  141   133    31 1
  142   134    61 1
  143   135    56 1
  144   136    24 1
  145   137    24 1
  146   139   138 1
  147   140   139 1
  148   141   140 1
  149   142   140 1
  150   143   142 1
  151   144   138 1
  152   144   143 1
  153   145   144 1
  154   146   145 1
  155   147   146 1
  156   148   147 1
  157   149   148 1
  158   150   149 1
  159   151   150 1
  160   152   151 1
  161   153   152 1
  162   154   138 1
  163   155   138 1
  164   156   143 1
  165   157   147 1
  166   158   151 1
  167   160   159 1
  168   161   160 1
  169   162   161 1
  170   163   161 1
  171   164   163 1
  172   165   159 1
  173   165   164 1
  174   166   165 1
  175   167   166 1
  176   168   167 1
  177   169   168 1
  178   170   169 1
  179   171   170 1
  180   172   171 1
  181   173   172 1
  182   174   153 1
  183   174   173 1
  184   175   159 1
  185   176   159 1
  186   177   164 1
  187   178   168 1
  188   179   172 1
  189   180   179 1
  190   181   179 1
  191   182   179 1
  192   183   178 1
  193   184   178 1
  194   185   178 1
  195   186   177 1
  196   187   177 1
  197   188   177 1
  198   189   176 1
  199   190   176 1
  200   191   176 1
  201   192   175 1
  202   193   175 1
  203   194   175 1
  204   195   160 1
  205   196   160 1
  206   197   158 1
  207   198   158 1
  208   199   158 1
  209   200   157 1
  210   201   157 1
  211   202   157 1
  212   203   156 1
  213   204   156 1
  214   205   156 1
  215   206   155 1
  216   207   155 1
  217   208   155 1
  218   209   154 1
  219   210   154 1
  220   211   154 1
  221   212   141 1
  222   213   146 1
  223   214   145 1
  224   215   142 1
  225   216   142 1
  226   217   174 1
  227   218   173 1
  228   219   171 1
  229   220   170 1
  230   221   169 1
  231   222   140 1
  232   223   167 1
  233   224   166 1
  234   225   165 1
  235   226   163 1
  236   227   161 1
  237   228   139 1
  238   229   139 1
  239   230   153 1
  240   231   152 1
  241   232   150 1
  242   233   149 1
  243   234   148 1
  244   235   162 1
  245   65    153 1
  246   65    174 1
@<TRIPOS>SUBSTRUCTURE
      1 CLA               1 ****               0 ****  **** 
      2 LUT             138 ****               0 ****  **** 
