@<TRIPOS>MOLECULE
Cpptraj generated mol2 file.
  235   246     2     0     0
SMALL
USER_CHARGES


@<TRIPOS>ATOM
      1 CAA        79.9817   59.2051   34.1914 a2         1 CLA     -0.055900
      2 CAB        79.8501   62.8032   43.4395 c8         1 CLA     -0.148500
      3 CAC        73.3016   58.3315   43.0087 a2         1 CLA     -0.012600
      4 CAD        75.4108   57.3811   35.1349 ck         1 CLA      0.398800
      5 NA         78.9769   59.3991   37.7341 ns         1 CLA     -0.225500
      6 CBA        81.2093   58.8564   33.1923 a2         1 CLA     -0.135000
      7 CBB        80.9413   62.9732   44.2855 c0         1 CLA     -0.395200
      8 CBC        73.4538   56.7985   42.8180 a3         1 CLA     -0.037700
      9 CBD        76.9750   57.6378   34.8669 a1         1 CLA     -0.053900
     10 NB         78.9133   60.8155   40.4002 nm         1 CLA     -0.295700
     11 OBD        74.6761   56.8727   34.2974 o2         1 CLA     -0.494600
     12 CGA        81.3936   57.3823   32.8971 c4         1 CLA      0.827000
     13 CGD        77.5980   56.2785   34.5125 c4         1 CLA      0.655300
     14 ND         76.1351   58.6873   38.3124 nm         1 CLA     -0.291600
     15 CED        77.8812   54.0239   35.1778 a3         1 CLA      0.005400
     16 CHA        77.4808   58.2649   36.1879 cs         1 CLA     -0.123800
     17 CHB        80.7944   60.6592   38.8487 aa         1 CLA     -0.291900
     18 CHC        77.6300   60.9640   42.4781 aa         1 CLA     -0.090400
     19 CHD        74.3079   58.4853   39.9139 aa         1 CLA     -0.052000
     20 CMA        82.5031   58.7827   36.9945 a3         1 CLA     -0.230700
     21 CMB        82.1024   62.6162   40.9977 a3         1 CLA     -0.180800
     22 CMC        75.4140   60.3081   44.7176 a3         1 CLA     -0.134000
     23 CMD        72.7621   57.1959   37.3790 a3         1 CLA     -0.141100
     24 C1         82.1464   55.3149   33.7354 a2         1 CLA      0.023000
     25 C1A        78.7891   58.7776   36.5175 ac         1 CLA     -0.015100
     26 C1B        80.1767   61.1212   40.0422 cr         1 CLA      0.054700
     27 C1C        76.4907   60.2206   42.2239 cn         1 CLA     -0.005600
     28 C1D        74.8354   58.3245   38.6491 ap         1 CLA     -0.047300
     29 O1A        81.1793   56.8216   31.8121 o2         1 CLA     -0.610800
     30 O1D        78.2458   56.0060   33.4987 o2         1 CLA     -0.558200
     31 C2         82.7539   54.7452   35.0641 c8         1 CLA     -0.325100
     32 C2A        80.1359   58.6688   35.6240 a1         1 CLA      0.098600
     33 C2B        80.7723   61.8909   41.0956 cb         1 CLA      0.088500
     34 C2C        75.4434   59.8486   43.2591 cb         1 CLA      0.053700
     35 C2D        74.1593   57.7789   37.4781 cb         1 CLA      0.058900
     36 O2A        81.9519   56.7159   33.9232 o1         1 CLA     -0.437200
     37 O2D        77.3346   55.3659   35.5234 o1         1 CLA     -0.357600
     38 C3         83.6165   53.6905   35.1597 c5         1 CLA      0.031200
     39 C3A        81.1409   59.4509   36.5104 a1         1 CLA      0.166800
     40 C3B        79.8115   62.0345   42.1263 cb         1 CLA      0.035000
     41 C3C        74.5505   59.0799   42.4753 cb         1 CLA     -0.089900
     42 C3D        75.1332   57.8031   36.5081 cb         1 CLA     -0.035900
     43 C4         83.1224   52.2290   35.3727 a3         1 CLA     -0.053300
     44 C4A        80.2563   59.8515   37.7810 ac         1 CLA      0.001800
     45 C4B        78.6563   61.3459   41.6333 cn         1 CLA     -0.020900
     46 C4C        75.0139   59.0729   41.0044 cr         1 CLA     -0.044400
     47 C4D        76.3394   58.2830   37.0246 c6         1 CLA     -0.046000
     48 C5         85.1201   53.8891   35.1658 a2         1 CLA     -0.070400
     49 C6         85.4917   55.3039   35.6301 a2         1 CLA      0.043900
     50 C7         85.5396   55.3170   37.1921 a2         1 CLA     -0.150000
     51 C8         85.5081   56.7124   37.9050 a1         1 CLA      0.064200
     52 C9         86.8350   57.5032   37.6055 a3         1 CLA     -0.259300
     53 C10        85.2823   56.6230   39.4168 a2         1 CLA     -0.071900
     54 C11        85.0096   57.9402   40.1438 a2         1 CLA      0.014500
     55 C12        84.8729   57.6554   41.6869 a2         1 CLA     -0.112100
     56 C13        84.4622   58.9309   42.4717 a1         1 CLA      0.089200
     57 C14        85.4865   60.0634   42.5005 a3         1 CLA     -0.239100
     58 C15        83.9123   58.5897   43.8829 a2         1 CLA     -0.102200
     59 C16        83.1267   59.5736   44.7066 a2         1 CLA      0.023900
     60 C17        82.4951   59.0759   46.0361 a2         1 CLA     -0.105700
     61 C18        81.3621   58.0605   46.2512 a1         1 CLA      0.206800
     62 C19        81.7905   56.6667   45.9718 a3         1 CLA     -0.280100
     63 C20        80.8432   58.1300   47.6602 a3         1 CLA     -0.280100
     64 NC         76.2158   59.7499   40.9868 nx         1 CLA     -0.309200
     65 MG         77.4653   59.7482   39.2808 mg         1 CLA      0.895000
     66 HMD3       72.1526   57.8625   36.7375 dc         1 CLA      0.064300
     67 HMD2       72.7327   56.2209   36.9933 dc         1 CLA      0.064300
     68 HMD1       72.1384   57.1123   38.2831 dc         1 CLA      0.064300
     69 HMC3       75.3658   61.4459   44.6627 dc         1 CLA      0.052100
     70 HMC2       74.5131   59.8705   45.2094 dc         1 CLA      0.052100
     71 HMC1       76.3462   59.9559   45.1165 dc         1 CLA      0.052100
     72 HMB3       82.0993   63.5455   41.6585 dc         1 CLA      0.063600
     73 HMB2       82.8321   61.9045   41.1252 dc         1 CLA      0.063600
     74 HMB1       82.1276   62.9551   39.9633 dc         1 CLA      0.063600
     75 HMA3       83.1015   58.2995   36.2059 dc         1 CLA      0.058300
     76 HMA2       83.2105   59.5030   37.4677 dc         1 CLA      0.058300
     77 HMA1       82.2533   58.0132   37.7292 dc         1 CLA      0.058300
     78 HED3       77.4204   53.6860   34.2493 dc         1 CLA      0.079300
     79 HED2       78.9250   54.1749   35.0096 dc         1 CLA      0.079300
     80 HED1       77.7585   53.2702   35.8434 dc         1 CLA      0.079300
     81 HBC3       72.5836   56.3533   43.2979 dc         1 CLA      0.016300
     82 HBC2       73.4749   56.5048   41.7112 dc         1 CLA      0.016300
     83 HBC1       74.3636   56.4874   43.3127 dc         1 CLA      0.016300
     84 HBB2       80.7542   63.4250   45.2642 da         1 CLA      0.183000
     85 HBB1       82.0012   62.5382   44.1210 da         1 CLA      0.183000
     86 HBA2       81.0606   59.4294   32.2668 dc         1 CLA      0.029400
     87 HBA1       82.1439   59.2449   33.6188 dc         1 CLA      0.029400
     88 HAC2       73.1503   58.5018   44.0896 dc         1 CLA      0.029300
     89 HAC1       72.3911   58.7542   42.4770 dc         1 CLA      0.029300
     90 HAA2       79.0312   58.8166   33.7726 dc         1 CLA      0.028700
     91 HAA1       79.7932   60.2608   34.2264 dc         1 CLA      0.028700
     92 H203       81.7030   58.0604   48.3268 dc         1 CLA      0.065600
     93 H202       80.3774   59.1022   47.6455 dc         1 CLA      0.065600
     94 H201       80.1291   57.3057   47.8579 dc         1 CLA      0.065600
     95 H193       81.1369   56.0272   46.5225 dc         1 CLA      0.065600
     96 H192       81.6163   56.5088   44.8733 dc         1 CLA      0.065600
     97 H191       82.8345   56.4516   46.1420 dc         1 CLA      0.065600
     98 H172       83.2467   58.6767   46.7728 dc         1 CLA      0.027600
     99 H171       82.1745   60.0343   46.6134 dc         1 CLA      0.027600
    100 H162       83.7621   60.3801   44.9892 dc         1 CLA      0.002900
    101 H161       82.3211   60.0501   44.1305 dc         1 CLA      0.002900
    102 H152       83.3419   57.7141   43.7632 dc         1 CLA      0.029100
    103 H151       84.8383   58.4126   44.5105 dc         1 CLA      0.029100
    104 H143       86.3675   59.7654   43.1876 dc         1 CLA      0.063600
    105 H142       85.8249   60.3908   41.4905 dc         1 CLA      0.063600
    106 H141       85.0766   60.9610   43.0916 dc         1 CLA      0.063600
    107 H122       84.1643   56.8297   41.9155 dc         1 CLA      0.032500
    108 H121       85.8676   57.2624   42.0754 dc         1 CLA      0.032500
    109 H112       85.7559   58.7185   40.0069 dc         1 CLA      0.006600
    110 H111       84.1029   58.5063   39.8366 dc         1 CLA      0.006600
    111 H102       84.5926   55.8879   39.7063 dc         1 CLA      0.024100
    112 H101       86.1892   56.2768   39.8567 dc         1 CLA      0.024100
    113 HHD        73.4324   57.8309   40.1306 da         1 CLA      0.174300
    114 HHC        77.7393   61.3149   43.4770 da         1 CLA      0.136800
    115 HHB        81.8420   60.8117   38.6548 da         1 CLA      0.138300
    116 HBD        76.9042   58.3271   33.9981 dc         1 CLA      0.107700
    117 HAB        78.9383   63.1879   43.8987 da         1 CLA      0.155200
    118 H93        87.1142   57.3588   36.5348 dc         1 CLA      0.069500
    119 H92        86.8740   58.5584   37.7695 dc         1 CLA      0.069500
    120 H91        87.5889   56.9605   38.2219 dc         1 CLA      0.069500
    121 H8         84.6592   57.2904   37.5248 dc         1 CLA      0.029300
    122 H72        84.6073   54.7695   37.6386 dc         1 CLA      0.044400
    123 H71        86.3437   54.6592   37.6430 dc         1 CLA      0.044400
    124 H62        86.5709   55.4552   35.3570 dc         1 CLA      0.015600
    125 H61        84.9225   56.1153   35.2223 dc         1 CLA      0.015600
    126 H52        85.5782   53.1530   35.8243 dc         1 CLA      0.033200
    127 H51        85.4390   53.7319   34.1389 dc         1 CLA      0.033200
    128 H43        83.7728   51.6762   36.0005 dc         1 CLA      0.037000
    129 H42        82.0794   52.2345   35.8310 dc         1 CLA      0.037000
    130 H41        83.1017   51.7492   34.3568 dc         1 CLA      0.037000
    131 H3A        81.4462   60.3632   36.0224 dc         1 CLA      0.041100
    132 H2A        80.4640   57.6073   35.6404 dc         1 CLA      0.083100
    133 H2         82.6068   55.2161   36.0004 da         1 CLA      0.180900
    134 H18        80.4926   58.3446   45.6696 dc         1 CLA     -0.003900
    135 H13        83.5255   59.2349   41.9855 dc         1 CLA      0.019700
    136 H12        81.1308   54.9124   33.5209 dc         1 CLA      0.120400
    137 H11        82.7832   55.1491   32.8765 dc         1 CLA      0.120400
    138 C1         69.9535   62.0878   50.5457 Z1         2 LUT      0.509236
    139 C2         68.6584   61.3804   51.0942 Z2         2 LUT     -0.434695
    140 C3         67.4313   62.4411   51.2889 Z3         2 LUT      0.437453
    141 O3         67.4743   63.0036   52.5759 S1         2 LUT     -0.547129
    142 C4         67.3891   63.5680   50.3246 Z4         2 LUT     -0.468603
    143 C5         68.3326   63.3951   49.1396 Z5         2 LUT      0.279246
    144 C6         69.4867   62.6785   49.2245 Z6         2 LUT     -0.305473
    145 C7         70.0600   62.1077   47.9290 Z7         2 LUT      0.069402
    146 C8         70.9046   62.7475   47.0387 Z8         2 LUT     -0.191631
    147 C9         71.2851   62.3174   45.6607 Z9         2 LUT      0.196698
    148 C10        72.2715   63.1346   45.0765 Y1         2 LUT     -0.208611
    149 C11        72.9103   62.9407   43.8420 Y2         2 LUT      0.030784
    150 C12        73.9951   63.7375   43.4870 Y3         2 LUT     -0.220316
    151 C13        74.7868   63.5844   42.3298 Y4         2 LUT      0.215937
    152 C14        75.9314   64.2853   42.2668 Y5         2 LUT     -0.185793
    153 C15        76.9769   64.2929   41.2446 Y6         2 LUT     -0.057835
    154 C16        71.0643   61.0787   50.4178 Y7         2 LUT     -0.405615
    155 C17        70.3491   63.1874   51.6057 Y7         2 LUT     -0.405615
    156 C18        67.7954   64.0008   47.8667 Y9         2 LUT     -0.369639
    157 C19        70.8510   61.1396   44.8915 W1         2 LUT     -0.333362
    158 C20        74.3356   62.8392   41.1323 W2         2 LUT     -0.323439
    159 C21        88.4254   66.2313   35.0475 Z1         2 LUT      0.406104
    160 C22        88.9677   65.7747   33.6453 Z2         2 LUT     -0.404965
    161 C23        88.8666   66.8352   32.4960 Z3         2 LUT      0.391255
    162 O23        89.4424   66.1535   31.3795 S1         2 LUT     -0.528210
    163 C24        87.5116   67.5062   32.5258 W6         2 LUT     -0.258361
    164 C25        86.5888   67.3650   33.4577 Z5         2 LUT      0.133546
    165 C26        86.9431   66.5499   34.7744 W8         2 LUT     -0.147008
    166 C27        86.2335   67.0701   36.0225 Z7         2 LUT      0.023843
    167 C28        85.1751   66.6095   36.7369 Z8         2 LUT     -0.216987
    168 C29        84.4404   67.2033   37.8540 Z9         2 LUT      0.206524
    169 C30        83.3601   66.5288   38.3649 Y1         2 LUT     -0.215556
    170 C31        82.4530   66.6709   39.4357 Y2         2 LUT      0.025142
    171 C32        81.3330   65.9223   39.5256 Y3         2 LUT     -0.212209
    172 C33        80.3272   65.9639   40.5957 Y4         2 LUT      0.240937
    173 C34        79.2033   65.0957   40.4736 Y5         2 LUT     -0.218862
    174 C35        78.1203   65.0250   41.4193 Y6         2 LUT     -0.023547
    175 C36        89.2458   67.4429   35.4384 Y7         2 LUT     -0.393485
    176 C37        88.6939   64.9634   35.9742 Y7         2 LUT     -0.393485
    177 C38        85.2780   68.0367   33.3323 Y9         2 LUT     -0.387526
    178 C39        84.9931   68.4037   38.5784 W1         2 LUT     -0.322618
    179 C40        80.6418   66.8508   41.8456 W2         2 LUT     -0.358472
    180 H403       79.9163   66.7381   42.7229 R7         2 LUT      0.097720
    181 H402       81.6325   66.6023   42.2773 R7         2 LUT      0.097720
    182 H401       80.6492   67.8962   41.5511 R7         2 LUT      0.097720
    183 H393       86.0058   68.6219   38.2794 R4         2 LUT      0.082505
    184 H392       84.4125   69.2385   38.1656 R4         2 LUT      0.082505
    185 H391       84.9877   68.3769   39.6306 R4         2 LUT      0.082505
    186 H383       84.6095   67.7578   34.1863 R1         2 LUT      0.104030
    187 H382       85.4312   69.0850   33.2729 R1         2 LUT      0.104030
    188 H381       84.8631   67.8280   32.3213 R1         2 LUT      0.104030
    189 H373       89.7156   64.8298   36.1485 T4         2 LUT      0.089537
    190 H372       88.3584   65.1760   37.0035 T4         2 LUT      0.089537
    191 H371       88.2280   64.1128   35.5569 T4         2 LUT      0.089537
    192 H363       89.0648   67.6454   36.4682 T4         2 LUT      0.089537
    193 H362       90.3310   67.3595   35.2333 T4         2 LUT      0.089537
    194 H361       89.0967   68.3569   34.9008 T4         2 LUT      0.089537
    195 H222       89.9972   65.4004   33.6160 U2         2 LUT      0.127376
    196 H221       88.4768   64.8265   33.3079 U2         2 LUT      0.127376
    197 H203       74.4623   63.3953   40.2475 R7         2 LUT      0.087068
    198 H202       74.9175   61.9972   40.9617 R7         2 LUT      0.087068
    199 H201       73.2889   62.6158   41.1894 R7         2 LUT      0.087068
    200 H193       70.2929   61.4114   44.0233 R4         2 LUT      0.089716
    201 H192       71.5777   60.4562   44.5885 R4         2 LUT      0.089716
    202 H191       70.2022   60.5195   45.4753 R4         2 LUT      0.089716
    203 H183       67.7467   63.2856   46.9642 R1         2 LUT      0.094572
    204 H182       66.8653   64.6385   48.0026 R1         2 LUT      0.094572
    205 H181       68.5396   64.7700   47.6106 R1         2 LUT      0.094572
    206 H173       71.4127   63.5510   51.6221 T4         2 LUT      0.093752
    207 H172       69.7649   64.1107   51.5405 T4         2 LUT      0.093752
    208 H171       70.1784   62.7061   52.6203 T4         2 LUT      0.093752
    209 H163       70.8965   60.3628   49.6111 T4         2 LUT      0.093752
    210 H162       72.0066   61.5285   50.1503 T4         2 LUT      0.093752
    211 H161       71.2780   60.5940   51.3945 T4         2 LUT      0.093752
    212 HO3        67.1367   62.4099   53.2623 Q1         2 LUT      0.300121
    213 H8         71.0117   63.7529   47.2937 U7         2 LUT      0.080784
    214 H7         69.6861   61.0894   47.8166 U6         2 LUT      0.042190
    215 H42        66.3334   63.6287   49.9961 U5         2 LUT      0.145166
    216 H41        67.6298   64.5125   50.8589 U5         2 LUT      0.145166
    217 H35        78.1589   65.7416   42.2731 T3         2 LUT      0.077919
    218 H34        79.2304   64.4424   39.5959 T2         2 LUT      0.073626
    219 H32        81.1712   65.2180   38.6988 T1         2 LUT      0.092510
    220 H31        82.7825   67.3933   40.2125 U9         2 LUT      0.070048
    221 H30        83.1250   65.6534   37.8402 U8         2 LUT      0.085442
    222 H3         66.5917   61.7479   51.2208 U3         2 LUT     -0.031596
    223 H28        84.7483   65.6539   36.3380 U7         2 LUT      0.084728
    224 H27        86.6274   68.0804   36.3179 U6         2 LUT      0.087291
    225 H26        86.4124   65.6539   34.5010 Q6         2 LUT      0.075325
    226 H24        87.1547   68.0614   31.6048 Q5         2 LUT      0.094482
    227 H23        89.6025   67.5953   32.7544 U3         2 LUT     -0.024869
    228 H22        68.1789   60.6847   50.3953 U2         2 LUT      0.127376
    229 H21        68.8711   60.7615   52.0523 U2         2 LUT      0.127376
    230 H15        76.8139   63.7275   40.3179 T3         2 LUT      0.093200
    231 H14        76.1410   64.9917   43.0266 T2         2 LUT      0.068865
    232 H12        74.3066   64.5211   44.1693 T1         2 LUT      0.095507
    233 H11        72.5670   62.1057   43.1697 U9         2 LUT      0.068930
    234 H10        72.5534   63.9844   45.6613 U8         2 LUT      0.083911
    235 H1         88.9736   65.3871   31.0129 Q1         2 LUT      0.297311
@<TRIPOS>BOND
    1     6     1 1
    2     7     2 1
    3     8     3 1
    4     9     4 1
    5    11     4 1
    6    12     6 1
    7    13     9 1
    8    16     9 1
    9    25     5 1
   10    25    16 1
   11    26    10 1
   12    26    17 1
   13    27    18 1
   14    28    14 1
   15    28    19 1
   16    29    12 1
   17    30    13 1
   18    31    24 1
   19    32     1 1
   20    32    25 1
   21    33    21 1
   22    33    26 1
   23    34    22 1
   24    34    27 1
   25    35    23 1
   26    35    28 1
   27    36    12 1
   28    36    24 1
   29    37    13 1
   30    37    15 1
   31    38    31 1
   32    39    20 1
   33    39    32 1
   34    40     2 1
   35    40    33 1
   36    41     3 1
   37    41    34 1
   38    42     4 1
   39    42    35 1
   40    43    38 1
   41    44     5 1
   42    44    17 1
   43    44    39 1
   44    45    10 1
   45    45    18 1
   46    45    40 1
   47    46    19 1
   48    46    41 1
   49    47    14 1
   50    47    16 1
   51    47    42 1
   52    48    38 1
   53    49    48 1
   54    50    49 1
   55    51    50 1
   56    52    51 1
   57    53    51 1
   58    54    53 1
   59    55    54 1
   60    56    55 1
   61    57    56 1
   62    58    56 1
   63    59    58 1
   64    60    59 1
   65    61    60 1
   66    62    61 1
   67    63    61 1
   68    64    27 1
   69    64    46 1
   70    65     5 1
   71    65    10 1
   72    65    64 1
   73    65    14 1
   74    66    23 1
   75    67    23 1
   76    68    23 1
   77    69    22 1
   78    70    22 1
   79    71    22 1
   80    72    21 1
   81    73    21 1
   82    74    21 1
   83    75    20 1
   84    76    20 1
   85    77    20 1
   86    78    15 1
   87    79    15 1
   88    80    15 1
   89    81     8 1
   90    82     8 1
   91    83     8 1
   92    84     7 1
   93    85     7 1
   94    86     6 1
   95    87     6 1
   96    88     3 1
   97    89     3 1
   98    90     1 1
   99    91     1 1
  100    92    63 1
  101    93    63 1
  102    94    63 1
  103    95    62 1
  104    96    62 1
  105    97    62 1
  106    98    60 1
  107    99    60 1
  108   100    59 1
  109   101    59 1
  110   102    58 1
  111   103    58 1
  112   104    57 1
  113   105    57 1
  114   106    57 1
  115   107    55 1
  116   108    55 1
  117   109    54 1
  118   110    54 1
  119   111    53 1
  120   112    53 1
  121   113    19 1
  122   114    18 1
  123   115    17 1
  124   116     9 1
  125   117     2 1
  126   118    52 1
  127   119    52 1
  128   120    52 1
  129   121    51 1
  130   122    50 1
  131   123    50 1
  132   124    49 1
  133   125    49 1
  134   126    48 1
  135   127    48 1
  136   128    43 1
  137   129    43 1
  138   130    43 1
  139   131    39 1
  140   132    32 1
  141   133    31 1
  142   134    61 1
  143   135    56 1
  144   136    24 1
  145   137    24 1
  146   139   138 1
  147   140   139 1
  148   141   140 1
  149   142   140 1
  150   143   142 1
  151   144   138 1
  152   144   143 1
  153   145   144 1
  154   146   145 1
  155   147   146 1
  156   148   147 1
  157   149   148 1
  158   150   149 1
  159   151   150 1
  160   152   151 1
  161   153   152 1
  162   154   138 1
  163   155   138 1
  164   156   143 1
  165   157   147 1
  166   158   151 1
  167   160   159 1
  168   161   160 1
  169   162   161 1
  170   163   161 1
  171   164   163 1
  172   165   159 1
  173   165   164 1
  174   166   165 1
  175   167   166 1
  176   168   167 1
  177   169   168 1
  178   170   169 1
  179   171   170 1
  180   172   171 1
  181   173   172 1
  182   174   153 1
  183   174   173 1
  184   175   159 1
  185   176   159 1
  186   177   164 1
  187   178   168 1
  188   179   172 1
  189   180   179 1
  190   181   179 1
  191   182   179 1
  192   183   178 1
  193   184   178 1
  194   185   178 1
  195   186   177 1
  196   187   177 1
  197   188   177 1
  198   189   176 1
  199   190   176 1
  200   191   176 1
  201   192   175 1
  202   193   175 1
  203   194   175 1
  204   195   160 1
  205   196   160 1
  206   197   158 1
  207   198   158 1
  208   199   158 1
  209   200   157 1
  210   201   157 1
  211   202   157 1
  212   203   156 1
  213   204   156 1
  214   205   156 1
  215   206   155 1
  216   207   155 1
  217   208   155 1
  218   209   154 1
  219   210   154 1
  220   211   154 1
  221   212   141 1
  222   213   146 1
  223   214   145 1
  224   215   142 1
  225   216   142 1
  226   217   174 1
  227   218   173 1
  228   219   171 1
  229   220   170 1
  230   221   169 1
  231   222   140 1
  232   223   167 1
  233   224   166 1
  234   225   165 1
  235   226   163 1
  236   227   161 1
  237   228   139 1
  238   229   139 1
  239   230   153 1
  240   231   152 1
  241   232   150 1
  242   233   149 1
  243   234   148 1
  244   235   162 1
  245   65    153 1
  246   65    174 1
@<TRIPOS>SUBSTRUCTURE
      1 CLA               1 ****               0 ****  **** 
      2 LUT             138 ****               0 ****  **** 
