@<TRIPOS>MOLECULE
Cpptraj generated mol2 file.
  235   246     2     0     0
SMALL
USER_CHARGES


@<TRIPOS>ATOM
      1 CAA        78.9581   58.8066   34.2887 a2         1 CLA     -0.055900
      2 CAB        79.0124   62.2866   43.4092 c8         1 CLA     -0.148500
      3 CAC        72.2362   58.1769   43.0075 a2         1 CLA     -0.012600
      4 CAD        74.7292   56.2031   35.5037 ck         1 CLA      0.398800
      5 NA         77.8680   59.3379   37.6797 ns         1 CLA     -0.225500
      6 CBA        80.2542   58.5218   33.5279 a2         1 CLA     -0.135000
      7 CBB        80.0092   61.9263   44.2175 c0         1 CLA     -0.395200
      8 CBC        72.5444   56.8090   43.4648 a3         1 CLA     -0.037700
      9 CBD        76.2198   56.7518   35.1544 a1         1 CLA     -0.053900
     10 NB         77.7663   60.6936   40.3236 nm         1 CLA     -0.295700
     11 OBD        73.9936   55.5750   34.7636 o2         1 CLA     -0.494600
     12 CGA        80.6068   57.0712   33.0580 c4         1 CLA      0.827000
     13 CGD        77.0987   55.6237   34.8226 c4         1 CLA      0.655300
     14 ND         75.0373   58.3338   38.3249 nm         1 CLA     -0.291600
     15 CED        77.3049   53.2790   35.0183 a3         1 CLA      0.005400
     16 CHA        76.5787   57.7056   36.3565 cs         1 CLA     -0.123800
     17 CHB        79.6724   60.6796   38.7161 aa         1 CLA     -0.291900
     18 CHC        76.4824   60.7414   42.3901 aa         1 CLA     -0.090400
     19 CHD        73.2651   58.0480   39.9430 aa         1 CLA     -0.052000
     20 CMA        81.3453   58.5575   37.1423 a3         1 CLA     -0.230700
     21 CMB        81.0762   62.2633   40.9050 a3         1 CLA     -0.180800
     22 CMC        74.3361   60.1014   44.5013 a3         1 CLA     -0.134000
     23 CMD        72.0651   56.1788   37.5813 a3         1 CLA     -0.141100
     24 C1         81.2395   54.9816   33.8043 a2         1 CLA      0.023000
     25 C1A        77.7387   58.4675   36.6048 ac         1 CLA     -0.015100
     26 C1B        79.0274   61.0390   39.9152 cr         1 CLA      0.054700
     27 C1C        75.3174   60.1237   42.0961 cn         1 CLA     -0.005600
     28 C1D        73.8141   57.7900   38.6907 ap         1 CLA     -0.047300
     29 O1A        80.3670   56.6077   31.9474 o2         1 CLA     -0.610800
     30 O1D        77.8174   55.6295   33.7913 o2         1 CLA     -0.558200
     31 C2         81.5071   54.3817   35.1153 c8         1 CLA     -0.325100
     32 C2A        79.0471   58.4162   35.7948 a1         1 CLA      0.098600
     33 C2B        79.6889   61.7653   40.9489 cb         1 CLA      0.088500
     34 C2C        74.3262   59.7114   43.0283 cb         1 CLA      0.053700
     35 C2D        73.4065   56.9001   37.5954 cb         1 CLA      0.058900
     36 O2A        81.0218   56.3619   34.1271 o1         1 CLA     -0.437200
     37 O2D        76.8961   54.5248   35.6197 o1         1 CLA     -0.357600
     38 C3         82.0323   53.1508   35.3101 c5         1 CLA      0.031200
     39 C3A        80.0362   59.3065   36.5815 a1         1 CLA      0.166800
     40 C3B        78.8008   61.7006   42.0832 cb         1 CLA      0.035000
     41 C3C        73.3651   58.9129   42.3464 cb         1 CLA     -0.089900
     42 C3D        74.4307   56.8296   36.7538 cb         1 CLA     -0.035900
     43 C4         81.1995   51.9562   35.5242 a3         1 CLA     -0.053300
     44 C4A        79.1482   59.8649   37.7062 ac         1 CLA      0.001800
     45 C4B        77.6190   61.0323   41.6305 cn         1 CLA     -0.020900
     46 C4C        73.8856   58.7953   41.0291 cr         1 CLA     -0.044400
     47 C4D        75.4178   57.7038   37.1270 c6         1 CLA     -0.046000
     48 C5         83.5484   52.9770   35.1430 a2         1 CLA     -0.070400
     49 C6         84.4430   54.0527   35.6769 a2         1 CLA      0.043900
     50 C7         84.4291   54.2391   37.2392 a2         1 CLA     -0.150000
     51 C8         85.1806   55.5509   37.6961 a1         1 CLA      0.064200
     52 C9         86.6039   55.5681   37.1820 a3         1 CLA     -0.259300
     53 C10        85.2047   55.7280   39.2526 a2         1 CLA     -0.071900
     54 C11        83.8826   56.2056   39.9127 a2         1 CLA      0.014500
     55 C12        83.9404   56.5953   41.3941 a2         1 CLA     -0.112100
     56 C13        82.3953   56.8490   41.9241 a1         1 CLA      0.089200
     57 C14        81.9190   58.1523   41.1782 a3         1 CLA     -0.239100
     58 C15        82.2643   56.9460   43.4645 a2         1 CLA     -0.102200
     59 C16        83.2076   57.9150   44.2434 a2         1 CLA      0.023900
     60 C17        83.2875   57.7370   45.8420 a2         1 CLA     -0.105700
     61 C18        84.2083   58.7724   46.5642 a1         1 CLA      0.206800
     62 C19        84.2944   58.4660   48.0762 a3         1 CLA     -0.280100
     63 C20        85.6619   58.8744   46.0043 a3         1 CLA     -0.280100
     64 NC         74.9815   59.5596   40.8613 nx         1 CLA     -0.309200
     65 MG         76.2753   59.5812   39.1881 mg         1 CLA      0.895000
     66 HMD3       72.2388   55.2679   36.9550 dc         1 CLA      0.064300
     67 HMD2       71.6512   55.8823   38.5333 dc         1 CLA      0.064300
     68 HMD1       71.3839   56.8716   37.1130 dc         1 CLA      0.064300
     69 HMC3       74.8110   59.2917   44.9904 dc         1 CLA      0.052100
     70 HMC2       74.9014   60.9926   44.6142 dc         1 CLA      0.052100
     71 HMC1       73.3194   60.1427   44.8082 dc         1 CLA      0.052100
     72 HMB3       81.8175   61.4691   40.7235 dc         1 CLA      0.063600
     73 HMB2       81.0046   62.9415   40.0871 dc         1 CLA      0.063600
     74 HMB1       81.3099   62.9112   41.7138 dc         1 CLA      0.063600
     75 HMA3       81.7714   57.9706   36.3029 dc         1 CLA      0.058300
     76 HMA2       82.1581   59.2561   37.4815 dc         1 CLA      0.058300
     77 HMA1       81.2615   57.7909   37.8933 dc         1 CLA      0.058300
     78 HED3       76.6051   53.0655   34.2023 dc         1 CLA      0.079300
     79 HED2       78.4192   53.2964   34.7231 dc         1 CLA      0.079300
     80 HED1       77.2865   52.5978   35.7705 dc         1 CLA      0.079300
     81 HBC3       71.6975   56.1259   43.4857 dc         1 CLA      0.016300
     82 HBC2       73.2448   56.5239   42.7110 dc         1 CLA      0.016300
     83 HBC1       73.0558   56.7318   44.3971 dc         1 CLA      0.016300
     84 HBB2       80.2169   62.3917   45.1838 da         1 CLA      0.183000
     85 HBB1       80.7844   61.2696   43.7647 da         1 CLA      0.183000
     86 HBA2       80.0987   59.0754   32.5797 dc         1 CLA      0.029400
     87 HBA1       81.1808   58.9870   33.8591 dc         1 CLA      0.029400
     88 HAC2       71.8436   58.7760   43.9043 dc         1 CLA      0.029300
     89 HAC1       71.3145   58.2185   42.4652 dc         1 CLA      0.029300
     90 HAA2       78.0014   58.3845   33.9291 dc         1 CLA      0.028700
     91 HAA1       78.8671   59.9114   34.2391 dc         1 CLA      0.028700
     92 H203       86.3683   59.5256   46.6367 dc         1 CLA      0.065600
     93 H202       86.1557   57.9427   46.1779 dc         1 CLA      0.065600
     94 H201       85.7718   59.2096   44.9157 dc         1 CLA      0.065600
     95 H193       84.7552   59.2444   48.5260 dc         1 CLA      0.065600
     96 H192       83.2412   58.4090   48.3223 dc         1 CLA      0.065600
     97 H191       84.7706   57.5581   48.2414 dc         1 CLA      0.065600
     98 H172       82.2621   58.0409   46.2166 dc         1 CLA      0.027600
     99 H171       83.6024   56.6974   46.1655 dc         1 CLA      0.027600
    100 H162       84.1837   57.7911   43.7960 dc         1 CLA      0.002900
    101 H161       82.7885   58.8305   43.9898 dc         1 CLA      0.002900
    102 H152       81.2489   56.9956   43.7904 dc         1 CLA      0.029100
    103 H151       82.6483   55.9138   43.7935 dc         1 CLA      0.029100
    104 H143       82.3983   59.0113   41.6295 dc         1 CLA      0.063600
    105 H142       82.1571   58.2290   40.1455 dc         1 CLA      0.063600
    106 H141       80.8390   58.2502   41.3772 dc         1 CLA      0.063600
    107 H122       84.3655   55.7929   42.0499 dc         1 CLA      0.032500
    108 H121       84.6216   57.4842   41.5504 dc         1 CLA      0.032500
    109 H112       83.6418   57.1177   39.3539 dc         1 CLA      0.006600
    110 H111       83.2187   55.3891   39.8785 dc         1 CLA      0.006600
    111 H102       85.5052   54.7695   39.6337 dc         1 CLA      0.024100
    112 H101       85.9689   56.4737   39.5292 dc         1 CLA      0.024100
    113 HHD        72.4438   57.4707   40.3510 da         1 CLA      0.174300
    114 HHC        76.6057   61.0790   43.4441 da         1 CLA      0.136800
    115 HHB        80.7270   61.0890   38.5728 da         1 CLA      0.138300
    116 HBD        76.1680   57.3445   34.2535 dc         1 CLA      0.107700
    117 HAB        78.2724   62.9998   43.8687 da         1 CLA      0.155200
    118 H93        87.1912   54.6672   37.4708 dc         1 CLA      0.069500
    119 H92        86.5356   55.7322   36.0802 dc         1 CLA      0.069500
    120 H91        87.0048   56.4260   37.7161 dc         1 CLA      0.069500
    121 H8         84.5571   56.3661   37.3285 dc         1 CLA      0.029300
    122 H72        83.4296   54.4002   37.6246 dc         1 CLA      0.044400
    123 H71        84.9172   53.4104   37.6788 dc         1 CLA      0.044400
    124 H62        85.4709   53.6907   35.4869 dc         1 CLA      0.015600
    125 H61        84.2260   55.0099   35.1960 dc         1 CLA      0.015600
    126 H52        83.8626   51.9891   35.5255 dc         1 CLA      0.033200
    127 H51        83.7493   52.9029   34.0764 dc         1 CLA      0.033200
    128 H43        81.2547   51.5915   36.5682 dc         1 CLA      0.037000
    129 H42        80.1266   52.1005   35.3990 dc         1 CLA      0.037000
    130 H41        81.6505   51.0548   34.9943 dc         1 CLA      0.037000
    131 H3A        80.3696   60.1692   36.0191 dc         1 CLA      0.041100
    132 H2A        79.3650   57.3750   35.8491 dc         1 CLA      0.083100
    133 H2         81.4278   55.0057   36.0159 da         1 CLA      0.180900
    134 H18        83.7004   59.7293   46.6140 dc         1 CLA     -0.003900
    135 H13        81.8153   55.9700   41.5228 dc         1 CLA      0.019700
    136 H12        80.2813   54.6465   33.4353 dc         1 CLA      0.120400
    137 H11        82.0913   54.8495   33.1606 dc         1 CLA      0.120400
    138 C1         69.0628   61.6143   49.7276 Z1         2 LUT      0.509236
    139 C2         68.2665   61.6953   51.1106 Z2         2 LUT     -0.434695
    140 C3         66.8191   62.1324   50.9272 Z3         2 LUT      0.437453
    141 O3         66.3370   62.4356   52.2166 S1         2 LUT     -0.547129
    142 C4         66.8280   63.4490   50.2100 Z4         2 LUT     -0.468603
    143 C5         67.3595   63.2408   48.7909 Z5         2 LUT      0.279246
    144 C6         68.4050   62.3892   48.5519 Z6         2 LUT     -0.305473
    145 C7         68.7269   62.0378   47.1478 Z7         2 LUT      0.069402
    146 C8         69.6815   62.6859   46.4168 Z8         2 LUT     -0.191631
    147 C9         70.3987   62.3005   45.1653 Z9         2 LUT      0.196698
    148 C10        71.3959   63.1444   44.7798 Y1         2 LUT     -0.208611
    149 C11        72.2330   62.9404   43.5797 Y2         2 LUT      0.030784
    150 C12        73.2202   63.8378   43.3052 Y3         2 LUT     -0.220316
    151 C13        74.1845   63.7059   42.2792 Y4         2 LUT      0.215937
    152 C14        75.3017   64.5043   42.3928 Y5         2 LUT     -0.185793
    153 C15        76.4102   64.6505   41.4395 Y6         2 LUT     -0.057835
    154 C16        69.3119   60.1352   49.4523 Y7         2 LUT     -0.405615
    155 C17        70.4873   62.3039   50.0205 Y7         2 LUT     -0.405615
    156 C18        66.7777   64.1661   47.7789 Y9         2 LUT     -0.369639
    157 C19        69.9808   60.9895   44.5619 W1         2 LUT     -0.333362
    158 C20        73.7439   62.9872   40.9806 W2         2 LUT     -0.323439
    159 C21        86.9919   65.8033   34.4650 Z1         2 LUT      0.406104
    160 C22        87.6323   65.3578   33.1816 Z2         2 LUT     -0.404965
    161 C23        87.7003   66.4103   32.0824 Z3         2 LUT      0.391255
    162 O23        88.3561   65.7315   30.9970 S1         2 LUT     -0.528210
    163 C24        86.4808   67.2573   31.9177 W6         2 LUT     -0.258361
    164 C25        85.5044   67.3411   32.8930 Z5         2 LUT      0.133546
    165 C26        85.5239   66.4726   34.1878 W8         2 LUT     -0.147008
    166 C27        85.0242   67.2486   35.3831 Z7         2 LUT      0.023843
    167 C28        83.9083   67.0074   36.1456 Z8         2 LUT     -0.216987
    168 C29        83.4311   67.4629   37.4677 Z9         2 LUT      0.206524
    169 C30        82.3559   66.7960   38.0401 Y1         2 LUT     -0.215556
    170 C31        81.7549   66.8902   39.3801 Y2         2 LUT      0.025142
    171 C32        80.7665   66.0282   39.7411 Y3         2 LUT     -0.212209
    172 C33        79.8618   66.0007   40.8503 Y4         2 LUT      0.240937
    173 C34        78.6539   65.3554   40.7265 Y5         2 LUT     -0.218862
    174 C35        77.6084   65.3313   41.6492 Y6         2 LUT     -0.023547
    175 C36        88.0815   66.7754   35.1873 Y7         2 LUT     -0.393485
    176 C37        86.7374   64.4922   35.2732 Y7         2 LUT     -0.393485
    177 C38        84.1672   68.0152   32.6123 Y9         2 LUT     -0.387526
    178 C39        84.3297   68.4426   38.2055 W1         2 LUT     -0.322618
    179 C40        80.1951   67.0816   41.8574 W2         2 LUT     -0.358472
    180 H403       81.2967   67.1133   41.9704 R7         2 LUT      0.097720
    181 H402       79.9010   68.1056   41.4688 R7         2 LUT      0.097720
    182 H401       79.7224   66.8417   42.8001 R7         2 LUT      0.097720
    183 H393       85.1483   67.8949   38.7000 R4         2 LUT      0.082505
    184 H392       84.8240   69.1877   37.6232 R4         2 LUT      0.082505
    185 H391       83.7851   69.0279   38.9305 R4         2 LUT      0.082505
    186 H383       83.2960   67.3376   32.5375 R1         2 LUT      0.104030
    187 H382       83.9198   68.7645   33.4057 R1         2 LUT      0.104030
    188 H381       84.2967   68.6583   31.7135 R1         2 LUT      0.104030
    189 H373       86.3726   64.7260   36.2442 T4         2 LUT      0.089537
    190 H372       86.0318   63.8141   34.7763 T4         2 LUT      0.089537
    191 H371       87.6908   64.0193   35.4932 T4         2 LUT      0.089537
    192 H363       87.7418   66.8497   36.2113 T4         2 LUT      0.089537
    193 H362       89.0398   66.3201   35.0872 T4         2 LUT      0.089537
    194 H361       88.1366   67.7766   34.7038 T4         2 LUT      0.089537
    195 H222       88.5864   64.8538   33.3459 U2         2 LUT      0.127376
    196 H221       86.9638   64.5592   32.8347 U2         2 LUT      0.127376
    197 H203       74.5201   62.9216   40.2276 R7         2 LUT      0.087068
    198 H202       73.4751   61.9962   41.2343 R7         2 LUT      0.087068
    199 H201       72.8679   63.5457   40.6710 R7         2 LUT      0.087068
    200 H193       70.3639   60.9768   43.5264 R4         2 LUT      0.089716
    201 H192       70.4028   60.2103   45.2182 R4         2 LUT      0.089716
    202 H191       68.8732   60.9201   44.4854 R4         2 LUT      0.089716
    203 H183       65.6776   64.2503   47.8537 R1         2 LUT      0.094572
    204 H182       67.2120   65.2121   47.9287 R1         2 LUT      0.094572
    205 H181       67.0436   63.8372   46.8218 R1         2 LUT      0.094572
    206 H173       71.0600   61.6915   50.7539 T4         2 LUT      0.093752
    207 H172       71.0662   62.4232   49.0895 T4         2 LUT      0.093752
    208 H171       70.4721   63.3101   50.4590 T4         2 LUT      0.093752
    209 H163       68.3710   59.6400   49.2816 T4         2 LUT      0.093752
    210 H162       69.9018   59.9099   48.6155 T4         2 LUT      0.093752
    211 H161       69.7868   59.6685   50.3235 T4         2 LUT      0.093752
    212 HO3        65.7052   61.7054   52.4962 Q1         2 LUT      0.300121
    213 H8         69.9797   63.6403   46.8319 U7         2 LUT      0.080784
    214 H7         68.3486   61.0164   46.7775 U6         2 LUT      0.042190
    215 H42        65.7696   63.8726   50.1844 U5         2 LUT      0.145166
    216 H41        67.3089   64.2146   50.7944 U5         2 LUT      0.145166
    217 H35        77.6441   65.8186   42.6508 T3         2 LUT      0.077919
    218 H34        78.4528   64.8908   39.8148 T2         2 LUT      0.073626
    219 H32        80.4211   65.4280   38.9050 T1         2 LUT      0.092510
    220 H31        82.1827   67.7022   40.0155 U9         2 LUT      0.070048
    221 H30        81.9307   66.0033   37.4297 U8         2 LUT      0.085442
    222 H3         66.1646   61.3500   50.3524 U3         2 LUT     -0.031596
    223 H28        83.3542   66.1850   35.6760 U7         2 LUT      0.084728
    224 H27        85.6928   67.9398   35.9409 U6         2 LUT      0.087291
    225 H26        84.9270   65.6047   33.9251 Q6         2 LUT      0.075325
    226 H24        86.3692   67.7496   30.9774 Q5         2 LUT      0.094482
    227 H23        88.5112   67.0893   32.4206 U3         2 LUT     -0.024869
    228 H22        68.3739   60.8143   51.6891 U2         2 LUT      0.127376
    229 H21        68.6984   62.5242   51.7496 U2         2 LUT      0.127376
    230 H15        76.2735   64.0309   40.5262 T3         2 LUT      0.093200
    231 H14        75.4147   65.1387   43.3027 T2         2 LUT      0.068865
    232 H12        73.3111   64.5735   44.0326 T1         2 LUT      0.095507
    233 H11        72.1376   62.1008   42.9685 U9         2 LUT      0.068930
    234 H10        71.6280   64.0589   45.2946 U8         2 LUT      0.083911
    235 H1         88.4162   66.3157   30.2123 Q1         2 LUT      0.297311
@<TRIPOS>BOND
    1     6     1 1
    2     7     2 1
    3     8     3 1
    4     9     4 1
    5    11     4 1
    6    12     6 1
    7    13     9 1
    8    16     9 1
    9    25     5 1
   10    25    16 1
   11    26    10 1
   12    26    17 1
   13    27    18 1
   14    28    14 1
   15    28    19 1
   16    29    12 1
   17    30    13 1
   18    31    24 1
   19    32     1 1
   20    32    25 1
   21    33    21 1
   22    33    26 1
   23    34    22 1
   24    34    27 1
   25    35    23 1
   26    35    28 1
   27    36    12 1
   28    36    24 1
   29    37    13 1
   30    37    15 1
   31    38    31 1
   32    39    20 1
   33    39    32 1
   34    40     2 1
   35    40    33 1
   36    41     3 1
   37    41    34 1
   38    42     4 1
   39    42    35 1
   40    43    38 1
   41    44     5 1
   42    44    17 1
   43    44    39 1
   44    45    10 1
   45    45    18 1
   46    45    40 1
   47    46    19 1
   48    46    41 1
   49    47    14 1
   50    47    16 1
   51    47    42 1
   52    48    38 1
   53    49    48 1
   54    50    49 1
   55    51    50 1
   56    52    51 1
   57    53    51 1
   58    54    53 1
   59    55    54 1
   60    56    55 1
   61    57    56 1
   62    58    56 1
   63    59    58 1
   64    60    59 1
   65    61    60 1
   66    62    61 1
   67    63    61 1
   68    64    27 1
   69    64    46 1
   70    65     5 1
   71    65    10 1
   72    65    64 1
   73    65    14 1
   74    66    23 1
   75    67    23 1
   76    68    23 1
   77    69    22 1
   78    70    22 1
   79    71    22 1
   80    72    21 1
   81    73    21 1
   82    74    21 1
   83    75    20 1
   84    76    20 1
   85    77    20 1
   86    78    15 1
   87    79    15 1
   88    80    15 1
   89    81     8 1
   90    82     8 1
   91    83     8 1
   92    84     7 1
   93    85     7 1
   94    86     6 1
   95    87     6 1
   96    88     3 1
   97    89     3 1
   98    90     1 1
   99    91     1 1
  100    92    63 1
  101    93    63 1
  102    94    63 1
  103    95    62 1
  104    96    62 1
  105    97    62 1
  106    98    60 1
  107    99    60 1
  108   100    59 1
  109   101    59 1
  110   102    58 1
  111   103    58 1
  112   104    57 1
  113   105    57 1
  114   106    57 1
  115   107    55 1
  116   108    55 1
  117   109    54 1
  118   110    54 1
  119   111    53 1
  120   112    53 1
  121   113    19 1
  122   114    18 1
  123   115    17 1
  124   116     9 1
  125   117     2 1
  126   118    52 1
  127   119    52 1
  128   120    52 1
  129   121    51 1
  130   122    50 1
  131   123    50 1
  132   124    49 1
  133   125    49 1
  134   126    48 1
  135   127    48 1
  136   128    43 1
  137   129    43 1
  138   130    43 1
  139   131    39 1
  140   132    32 1
  141   133    31 1
  142   134    61 1
  143   135    56 1
  144   136    24 1
  145   137    24 1
  146   139   138 1
  147   140   139 1
  148   141   140 1
  149   142   140 1
  150   143   142 1
  151   144   138 1
  152   144   143 1
  153   145   144 1
  154   146   145 1
  155   147   146 1
  156   148   147 1
  157   149   148 1
  158   150   149 1
  159   151   150 1
  160   152   151 1
  161   153   152 1
  162   154   138 1
  163   155   138 1
  164   156   143 1
  165   157   147 1
  166   158   151 1
  167   160   159 1
  168   161   160 1
  169   162   161 1
  170   163   161 1
  171   164   163 1
  172   165   159 1
  173   165   164 1
  174   166   165 1
  175   167   166 1
  176   168   167 1
  177   169   168 1
  178   170   169 1
  179   171   170 1
  180   172   171 1
  181   173   172 1
  182   174   153 1
  183   174   173 1
  184   175   159 1
  185   176   159 1
  186   177   164 1
  187   178   168 1
  188   179   172 1
  189   180   179 1
  190   181   179 1
  191   182   179 1
  192   183   178 1
  193   184   178 1
  194   185   178 1
  195   186   177 1
  196   187   177 1
  197   188   177 1
  198   189   176 1
  199   190   176 1
  200   191   176 1
  201   192   175 1
  202   193   175 1
  203   194   175 1
  204   195   160 1
  205   196   160 1
  206   197   158 1
  207   198   158 1
  208   199   158 1
  209   200   157 1
  210   201   157 1
  211   202   157 1
  212   203   156 1
  213   204   156 1
  214   205   156 1
  215   206   155 1
  216   207   155 1
  217   208   155 1
  218   209   154 1
  219   210   154 1
  220   211   154 1
  221   212   141 1
  222   213   146 1
  223   214   145 1
  224   215   142 1
  225   216   142 1
  226   217   174 1
  227   218   173 1
  228   219   171 1
  229   220   170 1
  230   221   169 1
  231   222   140 1
  232   223   167 1
  233   224   166 1
  234   225   165 1
  235   226   163 1
  236   227   161 1
  237   228   139 1
  238   229   139 1
  239   230   153 1
  240   231   152 1
  241   232   150 1
  242   233   149 1
  243   234   148 1
  244   235   162 1
  245   65    153 1
  246   65    174 1
@<TRIPOS>SUBSTRUCTURE
      1 CLA               1 ****               0 ****  **** 
      2 LUT             138 ****               0 ****  **** 
