@<TRIPOS>MOLECULE
Cpptraj generated mol2 file.
  235   246     2     0     0
SMALL
USER_CHARGES


@<TRIPOS>ATOM
      1 CAA        79.6022   59.6071   33.0969 a2         1 CLA     -0.055900
      2 CAB        79.6146   62.5181   42.3650 c8         1 CLA     -0.148500
      3 CAC        72.7257   58.8881   41.7417 a2         1 CLA     -0.012600
      4 CAD        75.3799   57.0764   34.0667 ck         1 CLA      0.398800
      5 NA         78.7555   59.6296   36.5457 ns         1 CLA     -0.225500
      6 CBA        80.7947   59.7369   32.0528 a2         1 CLA     -0.135000
      7 CBB        80.1626   63.6549   42.8092 c0         1 CLA     -0.395200
      8 CBC        72.7460   57.3830   41.5407 a3         1 CLA     -0.037700
      9 CBD        76.8269   57.5245   33.7676 a1         1 CLA     -0.053900
     10 NB         78.6066   60.9388   39.1852 nm         1 CLA     -0.295700
     11 OBD        74.6789   56.4598   33.3097 o2         1 CLA     -0.494600
     12 CGA        81.3787   58.4190   31.5329 c4         1 CLA      0.827000
     13 CGD        77.7384   56.3757   33.4031 c4         1 CLA      0.655300
     14 ND         75.8214   58.8657   37.0684 nm         1 CLA     -0.291600
     15 CED        78.1669   54.0282   33.5258 a3         1 CLA      0.005400
     16 CHA        77.2995   58.2769   35.0731 cs         1 CLA     -0.123800
     17 CHB        80.4252   61.1487   37.4841 aa         1 CLA     -0.291900
     18 CHC        77.2213   61.1972   41.1847 aa         1 CLA     -0.090400
     19 CHD        73.8793   58.8907   38.5513 aa         1 CLA     -0.052000
     20 CMA        81.9999   58.8888   35.9929 a3         1 CLA     -0.230700
     21 CMB        81.8703   62.7022   39.8970 a3         1 CLA     -0.180800
     22 CMC        74.8690   60.7328   43.2031 a3         1 CLA     -0.134000
     23 CMD        72.5426   57.2527   36.0011 a3         1 CLA     -0.141100
     24 C1         82.0700   56.2365   32.2852 a2         1 CLA      0.023000
     25 C1A        78.5503   58.8674   35.3579 ac         1 CLA     -0.015100
     26 C1B        79.8320   61.4214   38.7838 cr         1 CLA      0.054700
     27 C1C        76.0726   60.5297   40.8513 cn         1 CLA     -0.005600
     28 C1D        74.5259   58.5662   37.3446 ap         1 CLA     -0.047300
     29 O1A        81.4357   58.0458   30.3827 o2         1 CLA     -0.610800
     30 O1D        78.7549   56.5509   32.7044 o2         1 CLA     -0.558200
     31 C2         82.5504   55.3921   33.4592 c8         1 CLA     -0.325100
     32 C2A        79.7955   58.9054   34.4636 a1         1 CLA      0.098600
     33 C2B        80.4560   62.1601   39.8829 cb         1 CLA      0.088500
     34 C2C        74.8503   60.2784   41.7900 cb         1 CLA      0.053700
     35 C2D        73.9617   57.7841   36.2461 cb         1 CLA      0.058900
     36 O2A        81.8802   57.6782   32.6442 o1         1 CLA     -0.437200
     37 O2D        77.3839   55.1761   33.9732 o1         1 CLA     -0.357600
     38 C3         83.3391   54.3039   33.3704 c5         1 CLA      0.031200
     39 C3A        80.8423   59.6695   35.4082 a1         1 CLA      0.166800
     40 C3B        79.5107   62.0693   40.9566 cb         1 CLA      0.035000
     41 C3C        73.9995   59.5133   41.0799 cb         1 CLA     -0.089900
     42 C3D        75.0369   57.6093   35.3384 cb         1 CLA     -0.035900
     43 C4         82.8354   52.8493   33.3111 a3         1 CLA     -0.053300
     44 C4A        79.9719   60.2639   36.5011 ac         1 CLA      0.001800
     45 C4B        78.3733   61.3566   40.4318 cn         1 CLA     -0.020900
     46 C4C        74.5318   59.3836   39.6759 cr         1 CLA     -0.044400
     47 C4D        76.1529   58.2610   35.8917 c6         1 CLA     -0.046000
     48 C5         84.8701   54.6410   33.0714 a2         1 CLA     -0.070400
     49 C6         85.5164   55.7709   33.9013 a2         1 CLA      0.043900
     50 C7         85.4968   55.6551   35.4456 a2         1 CLA     -0.150000
     51 C8         85.7698   56.9351   36.3053 a1         1 CLA      0.064200
     52 C9         86.8033   57.8741   35.6444 a3         1 CLA     -0.259300
     53 C10        86.2000   56.5075   37.7254 a2         1 CLA     -0.071900
     54 C11        86.4448   57.6938   38.6880 a2         1 CLA      0.014500
     55 C12        86.5995   57.3786   40.1922 a2         1 CLA     -0.112100
     56 C13        86.3392   58.6111   41.0985 a1         1 CLA      0.089200
     57 C14        87.5579   59.6238   41.0504 a3         1 CLA     -0.239100
     58 C15        85.9930   58.1490   42.5174 a2         1 CLA     -0.102200
     59 C16        85.8158   59.2975   43.4321 a2         1 CLA      0.023900
     60 C17        85.2425   58.8252   44.8321 a2         1 CLA     -0.105700
     61 C18        85.1425   59.9460   45.8754 a1         1 CLA      0.206800
     62 C19        84.0928   61.0840   45.5422 a3         1 CLA     -0.280100
     63 C20        84.9110   59.4356   47.2951 a3         1 CLA     -0.280100
     64 NC         75.7904   60.0265   39.5791 nx         1 CLA     -0.309200
     65 MG         77.2168   59.9432   37.9914 mg         1 CLA      0.895000
     66 HMD3       72.0954   56.9855   36.9664 dc         1 CLA      0.064300
     67 HMD2       71.9874   58.0067   35.4373 dc         1 CLA      0.064300
     68 HMD1       72.5639   56.2624   35.4995 dc         1 CLA      0.064300
     69 HMC3       74.0099   60.3088   43.8274 dc         1 CLA      0.052100
     70 HMC2       75.8804   60.5510   43.6397 dc         1 CLA      0.052100
     71 HMC1       74.6961   61.8205   43.2130 dc         1 CLA      0.052100
     72 HMB3       82.0748   63.2707   40.8295 dc         1 CLA      0.063600
     73 HMB2       82.5407   61.8265   39.8644 dc         1 CLA      0.063600
     74 HMB1       82.1617   63.2213   39.0293 dc         1 CLA      0.063600
     75 HMA3       81.6048   58.1409   36.6524 dc         1 CLA      0.058300
     76 HMA2       82.6611   58.5218   35.1631 dc         1 CLA      0.058300
     77 HMA1       82.5426   59.5787   36.6121 dc         1 CLA      0.058300
     78 HED3       77.8725   53.0416   33.9308 dc         1 CLA      0.079300
     79 HED2       78.1964   53.9601   32.4187 dc         1 CLA      0.079300
     80 HED1       79.1895   54.2671   33.7579 dc         1 CLA      0.079300
     81 HBC3       73.6423   56.9505   42.0428 dc         1 CLA      0.016300
     82 HBC2       71.9423   57.0832   42.1835 dc         1 CLA      0.016300
     83 HBC1       72.5875   57.0730   40.5305 dc         1 CLA      0.016300
     84 HBB2       80.2523   64.0045   43.8817 da         1 CLA      0.183000
     85 HBB1       80.6749   64.2595   42.0708 da         1 CLA      0.183000
     86 HBA2       80.4280   60.2716   31.1870 dc         1 CLA      0.029400
     87 HBA1       81.5954   60.2736   32.5062 dc         1 CLA      0.029400
     88 HAC2       72.7025   59.0387   42.7869 dc         1 CLA      0.029300
     89 HAC1       71.8252   59.2342   41.3416 dc         1 CLA      0.029300
     90 HAA2       78.8158   59.0196   32.5993 dc         1 CLA      0.028700
     91 HAA1       79.1771   60.5442   33.2544 dc         1 CLA      0.028700
     92 H203       84.8688   60.2869   47.9516 dc         1 CLA      0.065600
     93 H202       83.9470   58.9261   47.1874 dc         1 CLA      0.065600
     94 H201       85.6338   58.6437   47.6701 dc         1 CLA      0.065600
     95 H193       84.2140   61.4100   44.4884 dc         1 CLA      0.065600
     96 H192       83.0607   60.7450   45.5781 dc         1 CLA      0.065600
     97 H191       84.1259   61.9069   46.2371 dc         1 CLA      0.065600
     98 H172       84.2952   58.3870   44.7087 dc         1 CLA      0.027600
     99 H171       85.9828   58.1000   45.1399 dc         1 CLA      0.027600
    100 H162       86.7477   59.7240   43.7379 dc         1 CLA      0.002900
    101 H161       85.1621   60.0621   43.0920 dc         1 CLA      0.002900
    102 H152       85.1502   57.4451   42.5745 dc         1 CLA      0.029100
    103 H151       86.8720   57.6309   42.8938 dc         1 CLA      0.029100
    104 H143       88.4541   59.1322   41.4075 dc         1 CLA      0.063600
    105 H142       87.7177   60.0063   40.0080 dc         1 CLA      0.063600
    106 H141       87.4022   60.5363   41.6486 dc         1 CLA      0.063600
    107 H122       85.7945   56.6167   40.4099 dc         1 CLA      0.032500
    108 H121       87.5577   56.9236   40.3428 dc         1 CLA      0.032500
    109 H112       87.2911   58.2859   38.3052 dc         1 CLA      0.006600
    110 H111       85.5650   58.3473   38.6543 dc         1 CLA      0.006600
    111 H102       85.5383   55.7069   38.0488 dc         1 CLA      0.024100
    112 H101       87.1340   55.9838   37.6260 dc         1 CLA      0.024100
    113 HHD        72.8170   58.5332   38.6864 da         1 CLA      0.174300
    114 HHC        77.3089   61.5184   42.2329 da         1 CLA      0.136800
    115 HHB        81.4308   61.4694   37.4198 da         1 CLA      0.138300
    116 HBD        76.6933   58.2765   32.9048 dc         1 CLA      0.107700
    117 HAB        79.1324   61.9007   43.1434 da         1 CLA      0.155200
    118 H93        86.8056   58.7727   36.2715 dc         1 CLA      0.069500
    119 H92        87.7990   57.4438   35.7246 dc         1 CLA      0.069500
    120 H91        86.5838   58.1116   34.6035 dc         1 CLA      0.069500
    121 H8         84.8138   57.5444   36.3147 dc         1 CLA      0.029300
    122 H72        84.4850   55.1871   35.7431 dc         1 CLA      0.044400
    123 H71        86.2988   55.0261   35.7686 dc         1 CLA      0.044400
    124 H62        86.5651   55.9802   33.5248 dc         1 CLA      0.015600
    125 H61        84.9214   56.6676   33.5804 dc         1 CLA      0.015600
    126 H52        85.4600   53.6999   33.1743 dc         1 CLA      0.033200
    127 H51        85.0861   54.8771   32.0530 dc         1 CLA      0.033200
    128 H43        83.3351   52.3878   34.2364 dc         1 CLA      0.037000
    129 H42        81.7721   52.7824   33.4820 dc         1 CLA      0.037000
    130 H41        83.2056   52.3640   32.4371 dc         1 CLA      0.037000
    131 H3A        81.3997   60.3953   34.8005 dc         1 CLA      0.041100
    132 H2A        80.1383   57.8985   34.3653 dc         1 CLA      0.083100
    133 H2         82.4637   55.8441   34.4424 da         1 CLA      0.180900
    134 H18        86.1145   60.4209   45.8034 dc         1 CLA     -0.003900
    135 H13        85.5035   59.1786   40.6759 dc         1 CLA      0.019700
    136 H12        81.2127   55.7398   31.7526 dc         1 CLA      0.120400
    137 H11        82.8730   56.2244   31.6350 dc         1 CLA      0.120400
    138 C1         68.8159   61.1648   48.9466 Z1         2 LUT      0.509236
    139 C2         67.4912   60.9282   49.6496 Z2         2 LUT     -0.434695
    140 C3         66.5947   62.1196   49.8819 Z3         2 LUT      0.437453
    141 O3         66.7722   62.7574   51.1313 S1         2 LUT     -0.547129
    142 C4         66.6674   63.2635   48.8914 Z4         2 LUT     -0.468603
    143 C5         67.5986   62.9378   47.7649 Z5         2 LUT      0.279246
    144 C6         68.6379   62.0965   47.7618 Z6         2 LUT     -0.305473
    145 C7         69.3114   61.7305   46.4777 Z7         2 LUT      0.069402
    146 C8         70.0835   62.6314   45.7603 Z8         2 LUT     -0.191631
    147 C9         70.6734   62.5691   44.3820 Z9         2 LUT      0.196698
    148 C10        71.6485   63.5449   43.9939 Y1         2 LUT     -0.208611
    149 C11        72.3511   63.5904   42.7654 Y2         2 LUT      0.030784
    150 C12        73.5217   64.2273   42.5219 Y3         2 LUT     -0.220316
    151 C13        74.3387   64.1380   41.2710 Y4         2 LUT      0.215937
    152 C14        75.5291   64.6911   41.3590 Y5         2 LUT     -0.185793
    153 C15        76.5040   64.8354   40.3953 Y6         2 LUT     -0.057835
    154 C16        69.5462   59.8470   48.6064 Y7         2 LUT     -0.405615
    155 C17        69.7327   61.9358   49.9615 Y7         2 LUT     -0.405615
    156 C18        67.2716   63.8751   46.5499 Y9         2 LUT     -0.369639
    157 C19        70.2048   61.4417   43.4807 W1         2 LUT     -0.333362
    158 C20        73.7950   63.4255   40.0363 W2         2 LUT     -0.323439
    159 C21        88.2464   66.7908   34.3883 Z1         2 LUT      0.406104
    160 C22        89.2351   66.5196   33.2318 Z2         2 LUT     -0.404965
    161 C23        89.3918   67.6090   32.1993 Z3         2 LUT      0.391255
    162 O23        90.0810   67.0280   31.0580 S1         2 LUT     -0.528210
    163 C24        88.0492   68.2406   31.7885 W6         2 LUT     -0.258361
    164 C25        86.9168   68.1264   32.4580 Z5         2 LUT      0.133546
    165 C26        86.8644   67.2476   33.8128 W8         2 LUT     -0.147008
    166 C27        85.9449   67.8324   34.8649 Z7         2 LUT      0.023843
    167 C28        84.8067   67.1740   35.2889 Z8         2 LUT     -0.216987
    168 C29        84.0218   67.4790   36.4393 Z9         2 LUT      0.206524
    169 C30        82.9688   66.6757   36.7434 Y1         2 LUT     -0.215556
    170 C31        82.1419   66.6211   37.9645 Y2         2 LUT      0.025142
    171 C32        80.9846   65.9016   38.2713 Y3         2 LUT     -0.212209
    172 C33        80.0800   66.0764   39.4884 Y4         2 LUT      0.240937
    173 C34        78.8156   65.3962   39.5065 Y5         2 LUT     -0.218862
    174 C35        77.7531   65.3420   40.5540 Y6         2 LUT     -0.023547
    175 C36        88.8400   67.8867   35.2703 Y7         2 LUT     -0.393485
    176 C37        88.1512   65.5359   35.2144 Y7         2 LUT     -0.393485
    177 C38        85.6338   68.9506   32.0565 Y9         2 LUT     -0.387526
    178 C39        84.3969   68.7099   37.3268 W1         2 LUT     -0.322618
    179 C40        80.3827   67.0195   40.6689 W2         2 LUT     -0.358472
    180 H403       81.4939   67.1771   40.7695 R7         2 LUT      0.097720
    181 H402       80.1317   68.0332   40.4918 R7         2 LUT      0.097720
    182 H401       80.0870   66.6606   41.6676 R7         2 LUT      0.097720
    183 H393       85.0611   69.4611   36.8133 R4         2 LUT      0.082505
    184 H392       83.5567   69.2118   37.6331 R4         2 LUT      0.082505
    185 H391       84.9255   68.3253   38.2272 R4         2 LUT      0.082505
    186 H383       84.7196   68.3170   31.8188 R1         2 LUT      0.104030
    187 H382       85.2965   69.4968   32.9295 R1         2 LUT      0.104030
    188 H381       85.7417   69.5360   31.1654 R1         2 LUT      0.104030
    189 H373       87.7798   64.7633   34.5869 T4         2 LUT      0.089537
    190 H372       89.1388   65.0973   35.4163 T4         2 LUT      0.089537
    191 H371       87.5029   65.5936   36.0781 T4         2 LUT      0.089537
    192 H363       89.0771   68.8357   34.7532 T4         2 LUT      0.089537
    193 H362       88.2133   68.0883   36.1450 T4         2 LUT      0.089537
    194 H361       89.8449   67.6613   35.5673 T4         2 LUT      0.089537
    195 H222       90.1403   66.0987   33.6748 U2         2 LUT      0.127376
    196 H221       88.7405   65.6465   32.7213 U2         2 LUT      0.127376
    197 H203       74.1595   63.8486   39.1005 R7         2 LUT      0.087068
    198 H202       74.1031   62.4205   40.0851 R7         2 LUT      0.087068
    199 H201       72.6740   63.3746   39.9134 R7         2 LUT      0.087068
    200 H193       70.8519   61.1990   42.6672 R4         2 LUT      0.089716
    201 H192       69.9345   60.5160   43.9663 R4         2 LUT      0.089716
    202 H191       69.3380   61.7940   42.9159 R4         2 LUT      0.089716
    203 H183       66.2608   64.2438   46.6261 R1         2 LUT      0.094572
    204 H182       67.9471   64.7714   46.3978 R1         2 LUT      0.094572
    205 H181       67.4042   63.2394   45.6907 R1         2 LUT      0.094572
    206 H173       69.7687   61.3893   50.9366 T4         2 LUT      0.093752
    207 H172       70.7337   62.2697   49.6031 T4         2 LUT      0.093752
    208 H171       69.2143   62.8392   50.1288 T4         2 LUT      0.093752
    209 H163       68.8349   59.2732   48.0416 T4         2 LUT      0.093752
    210 H162       70.5409   59.9072   48.1535 T4         2 LUT      0.093752
    211 H161       69.7059   59.2925   49.4817 T4         2 LUT      0.093752
    212 HO3        66.6285   62.0978   51.8575 Q1         2 LUT      0.300121
    213 H8         70.3351   63.5165   46.3820 U7         2 LUT      0.080784
    214 H7         68.9507   60.8437   45.9672 U6         2 LUT      0.042190
    215 H42        65.7301   63.5627   48.5161 U5         2 LUT      0.145166
    216 H41        67.0997   64.1281   49.4551 U5         2 LUT      0.145166
    217 H35        78.0450   65.7109   41.6015 T3         2 LUT      0.077919
    218 H34        78.6910   64.7341   38.6503 T2         2 LUT      0.073626
    219 H32        80.6753   65.0536   37.5424 T1         2 LUT      0.092510
    220 H31        82.3560   67.2818   38.7427 U9         2 LUT      0.070048
    221 H30        82.7543   65.8291   36.1022 U8         2 LUT      0.085442
    222 H3         65.5648   61.9063   49.6113 U3         2 LUT     -0.031596
    223 H28        84.5264   66.2627   34.6912 U7         2 LUT      0.084728
    224 H27        86.2767   68.6406   35.4343 U6         2 LUT      0.087291
    225 H26        86.4428   66.4316   33.2060 Q6         2 LUT      0.075325
    226 H24        88.0733   68.8784   30.8855 Q5         2 LUT      0.094482
    227 H23        90.0199   68.4109   32.7244 U3         2 LUT     -0.024869
    228 H22        67.0045   60.3106   48.8963 U2         2 LUT      0.127376
    229 H21        67.6037   60.3693   50.5679 U2         2 LUT      0.127376
    230 H15        76.3105   64.5385   39.3670 T3         2 LUT      0.093200
    231 H14        75.8068   65.0591   42.3410 T2         2 LUT      0.068865
    232 H12        74.0141   64.7992   43.2873 T1         2 LUT      0.095507
    233 H11        71.9503   62.9906   41.9628 U9         2 LUT      0.068930
    234 H10        71.9569   64.2974   44.7568 U8         2 LUT      0.083911
    235 H1         89.4949   66.4659   30.5541 Q1         2 LUT      0.297311
@<TRIPOS>BOND
    1     6     1 1
    2     7     2 1
    3     8     3 1
    4     9     4 1
    5    11     4 1
    6    12     6 1
    7    13     9 1
    8    16     9 1
    9    25     5 1
   10    25    16 1
   11    26    10 1
   12    26    17 1
   13    27    18 1
   14    28    14 1
   15    28    19 1
   16    29    12 1
   17    30    13 1
   18    31    24 1
   19    32     1 1
   20    32    25 1
   21    33    21 1
   22    33    26 1
   23    34    22 1
   24    34    27 1
   25    35    23 1
   26    35    28 1
   27    36    12 1
   28    36    24 1
   29    37    13 1
   30    37    15 1
   31    38    31 1
   32    39    20 1
   33    39    32 1
   34    40     2 1
   35    40    33 1
   36    41     3 1
   37    41    34 1
   38    42     4 1
   39    42    35 1
   40    43    38 1
   41    44     5 1
   42    44    17 1
   43    44    39 1
   44    45    10 1
   45    45    18 1
   46    45    40 1
   47    46    19 1
   48    46    41 1
   49    47    14 1
   50    47    16 1
   51    47    42 1
   52    48    38 1
   53    49    48 1
   54    50    49 1
   55    51    50 1
   56    52    51 1
   57    53    51 1
   58    54    53 1
   59    55    54 1
   60    56    55 1
   61    57    56 1
   62    58    56 1
   63    59    58 1
   64    60    59 1
   65    61    60 1
   66    62    61 1
   67    63    61 1
   68    64    27 1
   69    64    46 1
   70    65     5 1
   71    65    10 1
   72    65    64 1
   73    65    14 1
   74    66    23 1
   75    67    23 1
   76    68    23 1
   77    69    22 1
   78    70    22 1
   79    71    22 1
   80    72    21 1
   81    73    21 1
   82    74    21 1
   83    75    20 1
   84    76    20 1
   85    77    20 1
   86    78    15 1
   87    79    15 1
   88    80    15 1
   89    81     8 1
   90    82     8 1
   91    83     8 1
   92    84     7 1
   93    85     7 1
   94    86     6 1
   95    87     6 1
   96    88     3 1
   97    89     3 1
   98    90     1 1
   99    91     1 1
  100    92    63 1
  101    93    63 1
  102    94    63 1
  103    95    62 1
  104    96    62 1
  105    97    62 1
  106    98    60 1
  107    99    60 1
  108   100    59 1
  109   101    59 1
  110   102    58 1
  111   103    58 1
  112   104    57 1
  113   105    57 1
  114   106    57 1
  115   107    55 1
  116   108    55 1
  117   109    54 1
  118   110    54 1
  119   111    53 1
  120   112    53 1
  121   113    19 1
  122   114    18 1
  123   115    17 1
  124   116     9 1
  125   117     2 1
  126   118    52 1
  127   119    52 1
  128   120    52 1
  129   121    51 1
  130   122    50 1
  131   123    50 1
  132   124    49 1
  133   125    49 1
  134   126    48 1
  135   127    48 1
  136   128    43 1
  137   129    43 1
  138   130    43 1
  139   131    39 1
  140   132    32 1
  141   133    31 1
  142   134    61 1
  143   135    56 1
  144   136    24 1
  145   137    24 1
  146   139   138 1
  147   140   139 1
  148   141   140 1
  149   142   140 1
  150   143   142 1
  151   144   138 1
  152   144   143 1
  153   145   144 1
  154   146   145 1
  155   147   146 1
  156   148   147 1
  157   149   148 1
  158   150   149 1
  159   151   150 1
  160   152   151 1
  161   153   152 1
  162   154   138 1
  163   155   138 1
  164   156   143 1
  165   157   147 1
  166   158   151 1
  167   160   159 1
  168   161   160 1
  169   162   161 1
  170   163   161 1
  171   164   163 1
  172   165   159 1
  173   165   164 1
  174   166   165 1
  175   167   166 1
  176   168   167 1
  177   169   168 1
  178   170   169 1
  179   171   170 1
  180   172   171 1
  181   173   172 1
  182   174   153 1
  183   174   173 1
  184   175   159 1
  185   176   159 1
  186   177   164 1
  187   178   168 1
  188   179   172 1
  189   180   179 1
  190   181   179 1
  191   182   179 1
  192   183   178 1
  193   184   178 1
  194   185   178 1
  195   186   177 1
  196   187   177 1
  197   188   177 1
  198   189   176 1
  199   190   176 1
  200   191   176 1
  201   192   175 1
  202   193   175 1
  203   194   175 1
  204   195   160 1
  205   196   160 1
  206   197   158 1
  207   198   158 1
  208   199   158 1
  209   200   157 1
  210   201   157 1
  211   202   157 1
  212   203   156 1
  213   204   156 1
  214   205   156 1
  215   206   155 1
  216   207   155 1
  217   208   155 1
  218   209   154 1
  219   210   154 1
  220   211   154 1
  221   212   141 1
  222   213   146 1
  223   214   145 1
  224   215   142 1
  225   216   142 1
  226   217   174 1
  227   218   173 1
  228   219   171 1
  229   220   170 1
  230   221   169 1
  231   222   140 1
  232   223   167 1
  233   224   166 1
  234   225   165 1
  235   226   163 1
  236   227   161 1
  237   228   139 1
  238   229   139 1
  239   230   153 1
  240   231   152 1
  241   232   150 1
  242   233   149 1
  243   234   148 1
  244   235   162 1
  245   65    153 1
  246   65    174 1
@<TRIPOS>SUBSTRUCTURE
      1 CLA               1 ****               0 ****  **** 
      2 LUT             138 ****               0 ****  **** 
