@<TRIPOS>MOLECULE
Cpptraj generated mol2 file.
  235   246     2     0     0
SMALL
USER_CHARGES


@<TRIPOS>ATOM
      1 CAA        79.6706   59.4219   33.1642 a2         1 CLA     -0.055900
      2 CAB        79.5987   63.0695   42.2384 c8         1 CLA     -0.148500
      3 CAC        73.0089   58.7200   41.8355 a2         1 CLA     -0.012600
      4 CAD        75.6543   56.6263   34.3387 ck         1 CLA      0.398800
      5 NA         78.7279   59.5579   36.6941 ns         1 CLA     -0.225500
      6 CBA        80.7833   59.2681   32.1383 a2         1 CLA     -0.135000
      7 CBB        80.4936   64.0491   42.5526 c0         1 CLA     -0.395200
      8 CBC        73.1287   57.4207   42.5919 a3         1 CLA     -0.037700
      9 CBD        77.0785   57.1905   34.0486 a1         1 CLA     -0.053900
     10 NB         78.6427   60.9361   39.2871 nm         1 CLA     -0.295700
     11 OBD        75.0442   56.0060   33.5092 o2         1 CLA     -0.494600
     12 CGA        81.1621   57.9128   31.7103 c4         1 CLA      0.827000
     13 CGD        78.1034   56.0972   33.5533 c4         1 CLA      0.655300
     14 ND         75.9533   58.5115   37.2347 nm         1 CLA     -0.291600
     15 CED        78.7435   53.7367   33.9217 a3         1 CLA      0.005400
     16 CHA        77.5311   58.0239   35.2725 cs         1 CLA     -0.123800
     17 CHB        80.5543   60.8310   37.7195 aa         1 CLA     -0.291900
     18 CHC        77.3247   61.1721   41.3683 aa         1 CLA     -0.090400
     19 CHD        74.1604   58.4091   38.8608 aa         1 CLA     -0.052000
     20 CMA        82.1941   59.0855   35.7283 a3         1 CLA     -0.230700
     21 CMB        81.8298   62.7918   39.8153 a3         1 CLA     -0.180800
     22 CMC        75.1910   60.7380   43.2945 a3         1 CLA     -0.134000
     23 CMD        73.0007   56.2346   36.6575 a3         1 CLA     -0.141100
     24 C1         82.4394   55.9581   32.3227 a2         1 CLA      0.023000
     25 C1A        78.6349   58.8109   35.5138 ac         1 CLA     -0.015100
     26 C1B        79.9073   61.2781   38.8830 cr         1 CLA      0.054700
     27 C1C        76.2298   60.3703   41.0313 cn         1 CLA     -0.005600
     28 C1D        74.7620   57.9935   37.5668 ap         1 CLA     -0.047300
     29 O1A        81.0283   57.3798   30.6031 o2         1 CLA     -0.610800
     30 O1D        78.8174   56.1823   32.5592 o2         1 CLA     -0.558200
     31 C2         82.7447   55.4087   33.6948 c8         1 CLA     -0.325100
     32 C2A        79.9212   58.8912   34.5913 a1         1 CLA      0.098600
     33 C2B        80.4683   62.1966   39.8596 cb         1 CLA      0.088500
     34 C2C        75.1077   60.1905   41.8977 cb         1 CLA      0.053700
     35 C2D        74.2773   57.0154   36.6209 cb         1 CLA      0.058900
     36 O2A        81.8820   57.2717   32.6973 o1         1 CLA     -0.437200
     37 O2D        78.0615   54.9765   34.3735 o1         1 CLA     -0.357600
     38 C3         83.8586   54.7488   34.1048 c5         1 CLA      0.031200
     39 C3A        80.8616   59.7650   35.4090 a1         1 CLA      0.166800
     40 C3B        79.5746   62.3197   40.9581 cb         1 CLA      0.035000
     41 C3C        74.2327   59.3245   41.2723 cb         1 CLA     -0.089900
     42 C3D        75.3005   57.0690   35.6434 cb         1 CLA     -0.035900
     43 C4         83.7402   53.2902   34.5048 a3         1 CLA     -0.053300
     44 C4A        80.0221   60.0127   36.6743 ac         1 CLA      0.001800
     45 C4B        78.4714   61.4706   40.5759 cn         1 CLA     -0.020900
     46 C4C        74.7325   59.1868   39.9205 cr         1 CLA     -0.044400
     47 C4D        76.3673   57.8684   36.1573 c6         1 CLA     -0.046000
     48 C5         85.1901   55.4712   34.1433 a2         1 CLA     -0.070400
     49 C6         85.4202   56.7770   34.9181 a2         1 CLA      0.043900
     50 C7         85.0871   56.6127   36.3591 a2         1 CLA     -0.150000
     51 C8         85.4353   57.9609   37.1339 a1         1 CLA      0.064200
     52 C9         86.9518   58.4366   37.1735 a3         1 CLA     -0.259300
     53 C10        84.7942   57.9550   38.5137 a2         1 CLA     -0.071900
     54 C11        84.8486   59.1727   39.4009 a2         1 CLA      0.014500
     55 C12        83.9940   59.0201   40.6452 a2         1 CLA     -0.112100
     56 C13        84.0459   60.0925   41.8196 a1         1 CLA      0.089200
     57 C14        85.4796   60.3094   42.3653 a3         1 CLA     -0.239100
     58 C15        83.1614   59.8981   43.1050 a2         1 CLA     -0.102200
     59 C16        81.7047   59.5667   42.8652 a2         1 CLA      0.023900
     60 C17        80.7869   59.4381   44.0863 a2         1 CLA     -0.105700
     61 C18        79.3322   58.8906   43.7696 a1         1 CLA      0.206800
     62 C19        79.2624   57.3254   43.5192 a3         1 CLA     -0.280100
     63 C20        78.3542   59.4349   44.8959 a3         1 CLA     -0.280100
     64 NC         75.9091   59.8409   39.8216 nx         1 CLA     -0.309200
     65 MG         77.2398   59.8777   38.2497 mg         1 CLA      0.895000
     66 HMD3       72.8063   55.7862   35.6846 dc         1 CLA      0.064300
     67 HMD2       73.0052   55.4754   37.4580 dc         1 CLA      0.064300
     68 HMD1       72.1844   56.9198   36.8026 dc         1 CLA      0.064300
     69 HMC3       74.4078   60.3392   43.9269 dc         1 CLA      0.052100
     70 HMC2       76.1535   60.5545   43.8020 dc         1 CLA      0.052100
     71 HMC1       75.1132   61.8218   43.4118 dc         1 CLA      0.052100
     72 HMB3       82.4502   62.4000   39.0154 dc         1 CLA      0.063600
     73 HMB2       81.7460   63.7952   39.4269 dc         1 CLA      0.063600
     74 HMB1       82.2896   62.7944   40.8437 dc         1 CLA      0.063600
     75 HMA3       81.9403   58.0402   36.0378 dc         1 CLA      0.058300
     76 HMA2       82.8565   59.1701   34.7994 dc         1 CLA      0.058300
     77 HMA1       82.6104   59.6025   36.5329 dc         1 CLA      0.058300
     78 HED3       77.9586   53.1480   33.3567 dc         1 CLA      0.079300
     79 HED2       79.5743   53.9059   33.2004 dc         1 CLA      0.079300
     80 HED1       78.9965   53.0883   34.7622 dc         1 CLA      0.079300
     81 HBC3       73.7009   56.6711   42.0429 dc         1 CLA      0.016300
     82 HBC2       73.7100   57.5900   43.4864 dc         1 CLA      0.016300
     83 HBC1       72.0351   57.0760   42.7481 dc         1 CLA      0.016300
     84 HBB2       80.5535   64.5227   43.5777 da         1 CLA      0.183000
     85 HBB1       81.3011   64.4010   41.8484 da         1 CLA      0.183000
     86 HBA2       80.3999   59.7925   31.2636 dc         1 CLA      0.029400
     87 HBA1       81.7567   59.7348   32.4266 dc         1 CLA      0.029400
     88 HAC2       72.5294   59.4093   42.5206 dc         1 CLA      0.029300
     89 HAC1       72.2674   58.4957   41.0260 dc         1 CLA      0.029300
     90 HAA2       78.8189   58.8517   32.6725 dc         1 CLA      0.028700
     91 HAA1       79.3064   60.4909   33.2374 dc         1 CLA      0.028700
     92 H203       78.4787   60.5239   44.8505 dc         1 CLA      0.065600
     93 H202       77.3589   59.1238   44.7357 dc         1 CLA      0.065600
     94 H201       78.6749   59.0457   45.8352 dc         1 CLA      0.065600
     95 H193       78.1912   57.0798   43.3377 dc         1 CLA      0.065600
     96 H192       79.8350   57.1076   42.6070 dc         1 CLA      0.065600
     97 H191       79.5204   56.7644   44.3701 dc         1 CLA      0.065600
     98 H172       81.3742   58.8182   44.7154 dc         1 CLA      0.027600
     99 H171       80.6528   60.4753   44.4977 dc         1 CLA      0.027600
    100 H162       81.4029   60.3742   42.2535 dc         1 CLA      0.002900
    101 H161       81.5795   58.6058   42.3015 dc         1 CLA      0.002900
    102 H152       83.5395   59.1679   43.7080 dc         1 CLA      0.029100
    103 H151       83.1662   60.7937   43.6469 dc         1 CLA      0.029100
    104 H143       85.5619   61.0459   43.1803 dc         1 CLA      0.063600
    105 H142       85.8060   59.3541   42.7801 dc         1 CLA      0.063600
    106 H141       86.1165   60.5932   41.5796 dc         1 CLA      0.063600
    107 H122       82.9763   58.9635   40.3234 dc         1 CLA      0.032500
    108 H121       84.2752   57.9870   41.0783 dc         1 CLA      0.032500
    109 H112       85.7942   59.4179   39.6706 dc         1 CLA      0.006600
    110 H111       84.4826   59.9739   38.7180 dc         1 CLA      0.006600
    111 H102       83.7289   57.7569   38.3206 dc         1 CLA      0.024100
    112 H101       85.2919   57.1815   39.0876 dc         1 CLA      0.024100
    113 HHD        73.1550   57.9694   38.9995 da         1 CLA      0.174300
    114 HHC        77.3418   61.7090   42.3319 da         1 CLA      0.136800
    115 HHB        81.5061   61.2557   37.5576 da         1 CLA      0.138300
    116 HBD        76.9572   57.8658   33.1664 dc         1 CLA      0.107700
    117 HAB        78.8512   62.8553   43.0447 da         1 CLA      0.155200
    118 H93        87.5722   57.7268   36.6749 dc         1 CLA      0.069500
    119 H92        87.0600   59.3541   36.6077 dc         1 CLA      0.069500
    120 H91        87.3651   58.5238   38.1220 dc         1 CLA      0.069500
    121 H8         84.8344   58.6783   36.6247 dc         1 CLA      0.029300
    122 H72        84.0503   56.2584   36.4500 dc         1 CLA      0.044400
    123 H71        85.6389   55.8598   36.8696 dc         1 CLA      0.044400
    124 H62        86.4666   56.9728   34.7971 dc         1 CLA      0.015600
    125 H61        84.7721   57.4740   34.4466 dc         1 CLA      0.015600
    126 H52        85.9557   54.7783   34.4787 dc         1 CLA      0.033200
    127 H51        85.4488   55.7462   33.0937 dc         1 CLA      0.033200
    128 H43        84.1420   52.8152   33.6198 dc         1 CLA      0.037000
    129 H42        84.3800   53.1301   35.3331 dc         1 CLA      0.037000
    130 H41        82.6983   53.0570   34.7743 dc         1 CLA      0.037000
    131 H3A        81.0651   60.6684   34.8501 dc         1 CLA      0.041100
    132 H2A        80.2003   57.8514   34.4028 dc         1 CLA      0.083100
    133 H2         82.4928   55.9613   34.6206 da         1 CLA      0.180900
    134 H18        79.0788   59.3816   42.7633 dc         1 CLA     -0.003900
    135 H13        83.8173   61.0575   41.3037 dc         1 CLA      0.019700
    136 H12        81.6685   55.3160   31.8161 dc         1 CLA      0.120400
    137 H11        83.3593   56.1191   31.7631 dc         1 CLA      0.120400
    138 C1         69.4494   62.5291   49.4364 Z1         2 LUT      0.509236
    139 C2         68.1849   62.1734   50.0751 Z2         2 LUT     -0.434695
    140 C3         67.2267   63.3629   50.2728 Z3         2 LUT      0.437453
    141 O3         66.7988   63.5407   51.6205 S1         2 LUT     -0.547129
    142 C4         67.3517   64.5637   49.3750 Z4         2 LUT     -0.468603
    143 C5         68.1289   64.2697   48.1224 Z5         2 LUT      0.279246
    144 C6         69.0960   63.2721   48.0475 Z6         2 LUT     -0.305473
    145 C7         69.7753   62.7079   46.8929 Z7         2 LUT      0.069402
    146 C8         70.5923   63.3077   45.9821 Z8         2 LUT     -0.191631
    147 C9         71.0848   62.8517   44.7056 Z9         2 LUT      0.196698
    148 C10        71.9850   63.7086   44.0380 Y1         2 LUT     -0.208611
    149 C11        72.6368   63.5583   42.7846 Y2         2 LUT      0.030784
    150 C12        73.7380   64.2858   42.4563 Y3         2 LUT     -0.220316
    151 C13        74.7245   64.1402   41.3698 Y4         2 LUT      0.215937
    152 C14        75.9135   64.8441   41.4883 Y5         2 LUT     -0.185793
    153 C15        77.0948   64.8709   40.5989 Y6         2 LUT     -0.057835
    154 C16        70.3405   61.1872   49.3283 Y7         2 LUT     -0.405615
    155 C17        70.1342   63.4666   50.4977 Y7         2 LUT     -0.405615
    156 C18        67.4239   64.9045   46.9279 Y9         2 LUT     -0.369639
    157 C19        70.5424   61.5253   44.0918 W1         2 LUT     -0.333362
    158 C20        74.2482   63.3713   40.1231 W2         2 LUT     -0.323439
    159 C21        88.3298   66.4595   34.4566 Z1         2 LUT      0.406104
    160 C22        89.0850   65.9819   33.1344 Z2         2 LUT     -0.404965
    161 C23        89.1962   67.0502   32.0689 Z3         2 LUT      0.391255
    162 O23        89.9865   66.6278   30.9695 S1         2 LUT     -0.528210
    163 C24        87.8120   67.6270   31.7943 W6         2 LUT     -0.258361
    164 C25        86.7579   67.6634   32.6487 Z5         2 LUT      0.133546
    165 C26        86.7915   67.0487   34.0627 W8         2 LUT     -0.147008
    166 C27        86.0815   67.7048   35.2098 Z7         2 LUT      0.023843
    167 C28        85.0701   67.1616   35.9025 Z8         2 LUT     -0.216987
    168 C29        84.4161   67.7337   37.1147 Z9         2 LUT      0.206524
    169 C30        83.2999   67.0339   37.5255 Y1         2 LUT     -0.215556
    170 C31        82.4666   67.2362   38.6436 Y2         2 LUT      0.025142
    171 C32        81.2963   66.5391   38.9102 Y3         2 LUT     -0.212209
    172 C33        80.3787   66.6270   40.0481 Y4         2 LUT      0.240937
    173 C34        79.2983   65.7453   40.0192 Y5         2 LUT     -0.218862
    174 C35        78.1859   65.6379   40.9252 Y6         2 LUT     -0.023547
    175 C36        89.0764   67.5953   35.1382 Y7         2 LUT     -0.393485
    176 C37        88.4826   65.1533   35.3266 Y7         2 LUT     -0.393485
    177 C38        85.4613   68.3500   32.2593 Y9         2 LUT     -0.387526
    178 C39        85.1063   68.8375   37.9265 W1         2 LUT     -0.322618
    179 C40        80.6058   67.7410   40.9895 W2         2 LUT     -0.358472
    180 H403       80.0329   67.5982   41.9083 R7         2 LUT      0.097720
    181 H402       81.6325   67.7550   41.4737 R7         2 LUT      0.097720
    182 H401       80.4029   68.7357   40.6011 R7         2 LUT      0.097720
    183 H393       85.4008   69.7411   37.3998 R4         2 LUT      0.082505
    184 H392       84.4306   69.2929   38.7278 R4         2 LUT      0.082505
    185 H391       86.0930   68.6234   38.4638 R4         2 LUT      0.082505
    186 H383       84.9414   68.9608   33.0616 R1         2 LUT      0.104030
    187 H382       85.6416   68.9349   31.3511 R1         2 LUT      0.104030
    188 H381       84.8880   67.5069   32.1257 R1         2 LUT      0.104030
    189 H373       87.9531   64.2367   34.8530 T4         2 LUT      0.089537
    190 H372       89.4696   64.8267   35.3773 T4         2 LUT      0.089537
    191 H371       88.1608   65.2413   36.3695 T4         2 LUT      0.089537
    192 H363       89.0676   68.4258   34.4628 T4         2 LUT      0.089537
    193 H362       88.6132   67.7943   36.1297 T4         2 LUT      0.089537
    194 H361       90.1767   67.3425   35.2798 T4         2 LUT      0.089537
    195 H222       90.1271   65.6085   33.1768 U2         2 LUT      0.127376
    196 H221       88.4028   65.1773   32.6487 U2         2 LUT      0.127376
    197 H203       75.0554   63.0701   39.4203 R7         2 LUT      0.087068
    198 H202       73.5161   62.5843   40.2659 R7         2 LUT      0.087068
    199 H201       73.5951   63.9843   39.4341 R7         2 LUT      0.087068
    200 H193       69.7401   61.6310   43.3773 R4         2 LUT      0.089716
    201 H192       71.4300   61.0658   43.6141 R4         2 LUT      0.089716
    202 H191       70.2048   60.8366   44.8345 R4         2 LUT      0.089716
    203 H183       66.3417   64.8778   46.9835 R1         2 LUT      0.094572
    204 H182       67.7771   65.9103   46.7497 R1         2 LUT      0.094572
    205 H181       67.7462   64.2637   46.0694 R1         2 LUT      0.094572
    206 H173       69.8305   64.4996   50.4489 T4         2 LUT      0.093752
    207 H172       70.1857   63.0498   51.4895 T4         2 LUT      0.093752
    208 H171       71.2127   63.5911   50.2993 T4         2 LUT      0.093752
    209 H163       69.7736   60.4321   48.7369 T4         2 LUT      0.093752
    210 H162       71.2383   61.4417   48.7816 T4         2 LUT      0.093752
    211 H161       70.6407   60.7188   50.2515 T4         2 LUT      0.093752
    212 HO3        67.5164   63.7778   52.2499 Q1         2 LUT      0.300121
    213 H8         70.7531   64.3726   46.1999 U7         2 LUT      0.080784
    214 H7         69.5460   61.6314   46.8146 U6         2 LUT      0.042190
    215 H42        66.2823   64.8172   49.0854 U5         2 LUT      0.145166
    216 H41        67.8908   65.4680   49.8250 U5         2 LUT      0.145166
    217 H35        78.1811   66.1496   41.8888 T3         2 LUT      0.077919
    218 H34        79.2324   65.0902   39.0992 T2         2 LUT      0.073626
    219 H32        81.0167   65.7369   38.2408 T1         2 LUT      0.092510
    220 H31        82.5864   68.0601   39.2763 U9         2 LUT      0.070048
    221 H30        82.9641   66.1221   36.9037 U8         2 LUT      0.085442
    222 H3         66.2366   63.0127   50.0805 U3         2 LUT     -0.031596
    223 H28        84.7924   66.1846   35.6155 U7         2 LUT      0.084728
    224 H27        86.3183   68.7416   35.5230 U6         2 LUT      0.087291
    225 H26        86.0993   66.2063   33.7913 Q6         2 LUT      0.075325
    226 H24        87.6177   67.9892   30.7394 Q5         2 LUT      0.094482
    227 H23        89.8767   67.8508   32.4376 U3         2 LUT     -0.024869
    228 H22        67.6129   61.6025   49.3742 U2         2 LUT      0.127376
    229 H21        68.5083   61.6518   51.0414 U2         2 LUT      0.127376
    230 H15        77.1520   64.3388   39.6846 T3         2 LUT      0.093200
    231 H14        76.0236   65.3008   42.4548 T2         2 LUT      0.068865
    232 H12        73.8231   65.0763   43.1633 T1         2 LUT      0.095507
    233 H11        72.3272   62.6612   42.1506 U9         2 LUT      0.068930
    234 H10        72.4229   64.5061   44.5671 U8         2 LUT      0.083911
    235 H1         89.5771   65.9903   30.4269 Q1         2 LUT      0.297311
@<TRIPOS>BOND
    1     6     1 1
    2     7     2 1
    3     8     3 1
    4     9     4 1
    5    11     4 1
    6    12     6 1
    7    13     9 1
    8    16     9 1
    9    25     5 1
   10    25    16 1
   11    26    10 1
   12    26    17 1
   13    27    18 1
   14    28    14 1
   15    28    19 1
   16    29    12 1
   17    30    13 1
   18    31    24 1
   19    32     1 1
   20    32    25 1
   21    33    21 1
   22    33    26 1
   23    34    22 1
   24    34    27 1
   25    35    23 1
   26    35    28 1
   27    36    12 1
   28    36    24 1
   29    37    13 1
   30    37    15 1
   31    38    31 1
   32    39    20 1
   33    39    32 1
   34    40     2 1
   35    40    33 1
   36    41     3 1
   37    41    34 1
   38    42     4 1
   39    42    35 1
   40    43    38 1
   41    44     5 1
   42    44    17 1
   43    44    39 1
   44    45    10 1
   45    45    18 1
   46    45    40 1
   47    46    19 1
   48    46    41 1
   49    47    14 1
   50    47    16 1
   51    47    42 1
   52    48    38 1
   53    49    48 1
   54    50    49 1
   55    51    50 1
   56    52    51 1
   57    53    51 1
   58    54    53 1
   59    55    54 1
   60    56    55 1
   61    57    56 1
   62    58    56 1
   63    59    58 1
   64    60    59 1
   65    61    60 1
   66    62    61 1
   67    63    61 1
   68    64    27 1
   69    64    46 1
   70    65     5 1
   71    65    10 1
   72    65    64 1
   73    65    14 1
   74    66    23 1
   75    67    23 1
   76    68    23 1
   77    69    22 1
   78    70    22 1
   79    71    22 1
   80    72    21 1
   81    73    21 1
   82    74    21 1
   83    75    20 1
   84    76    20 1
   85    77    20 1
   86    78    15 1
   87    79    15 1
   88    80    15 1
   89    81     8 1
   90    82     8 1
   91    83     8 1
   92    84     7 1
   93    85     7 1
   94    86     6 1
   95    87     6 1
   96    88     3 1
   97    89     3 1
   98    90     1 1
   99    91     1 1
  100    92    63 1
  101    93    63 1
  102    94    63 1
  103    95    62 1
  104    96    62 1
  105    97    62 1
  106    98    60 1
  107    99    60 1
  108   100    59 1
  109   101    59 1
  110   102    58 1
  111   103    58 1
  112   104    57 1
  113   105    57 1
  114   106    57 1
  115   107    55 1
  116   108    55 1
  117   109    54 1
  118   110    54 1
  119   111    53 1
  120   112    53 1
  121   113    19 1
  122   114    18 1
  123   115    17 1
  124   116     9 1
  125   117     2 1
  126   118    52 1
  127   119    52 1
  128   120    52 1
  129   121    51 1
  130   122    50 1
  131   123    50 1
  132   124    49 1
  133   125    49 1
  134   126    48 1
  135   127    48 1
  136   128    43 1
  137   129    43 1
  138   130    43 1
  139   131    39 1
  140   132    32 1
  141   133    31 1
  142   134    61 1
  143   135    56 1
  144   136    24 1
  145   137    24 1
  146   139   138 1
  147   140   139 1
  148   141   140 1
  149   142   140 1
  150   143   142 1
  151   144   138 1
  152   144   143 1
  153   145   144 1
  154   146   145 1
  155   147   146 1
  156   148   147 1
  157   149   148 1
  158   150   149 1
  159   151   150 1
  160   152   151 1
  161   153   152 1
  162   154   138 1
  163   155   138 1
  164   156   143 1
  165   157   147 1
  166   158   151 1
  167   160   159 1
  168   161   160 1
  169   162   161 1
  170   163   161 1
  171   164   163 1
  172   165   159 1
  173   165   164 1
  174   166   165 1
  175   167   166 1
  176   168   167 1
  177   169   168 1
  178   170   169 1
  179   171   170 1
  180   172   171 1
  181   173   172 1
  182   174   153 1
  183   174   173 1
  184   175   159 1
  185   176   159 1
  186   177   164 1
  187   178   168 1
  188   179   172 1
  189   180   179 1
  190   181   179 1
  191   182   179 1
  192   183   178 1
  193   184   178 1
  194   185   178 1
  195   186   177 1
  196   187   177 1
  197   188   177 1
  198   189   176 1
  199   190   176 1
  200   191   176 1
  201   192   175 1
  202   193   175 1
  203   194   175 1
  204   195   160 1
  205   196   160 1
  206   197   158 1
  207   198   158 1
  208   199   158 1
  209   200   157 1
  210   201   157 1
  211   202   157 1
  212   203   156 1
  213   204   156 1
  214   205   156 1
  215   206   155 1
  216   207   155 1
  217   208   155 1
  218   209   154 1
  219   210   154 1
  220   211   154 1
  221   212   141 1
  222   213   146 1
  223   214   145 1
  224   215   142 1
  225   216   142 1
  226   217   174 1
  227   218   173 1
  228   219   171 1
  229   220   170 1
  230   221   169 1
  231   222   140 1
  232   223   167 1
  233   224   166 1
  234   225   165 1
  235   226   163 1
  236   227   161 1
  237   228   139 1
  238   229   139 1
  239   230   153 1
  240   231   152 1
  241   232   150 1
  242   233   149 1
  243   234   148 1
  244   235   162 1
  245   65    153 1
  246   65    174 1
@<TRIPOS>SUBSTRUCTURE
      1 CLA               1 ****               0 ****  **** 
      2 LUT             138 ****               0 ****  **** 
