@<TRIPOS>MOLECULE
Cpptraj generated mol2 file.
  235   246     2     0     0
SMALL
USER_CHARGES


@<TRIPOS>ATOM
      1 CAA        77.4158   58.2696   33.9937 a2         1 CLA     -0.055900
      2 CAB        77.8153   62.0437   42.9274 c8         1 CLA     -0.148500
      3 CAC        70.5616   58.5105   42.2738 a2         1 CLA     -0.012600
      4 CAD        73.3460   55.7908   35.3007 ck         1 CLA      0.398800
      5 NA         76.6438   58.6337   37.4150 ns         1 CLA     -0.225500
      6 CBA        78.5784   58.1819   32.9387 a2         1 CLA     -0.135000
      7 CBB        79.0172   61.9227   43.5508 c0         1 CLA     -0.395200
      8 CBC        70.7807   57.0160   42.6829 a3         1 CLA     -0.037700
      9 CBD        74.8941   56.0261   35.1180 a1         1 CLA     -0.053900
     10 NB         76.3996   60.2687   39.8739 nm         1 CLA     -0.295700
     11 OBD        72.7601   55.0450   34.5580 o2         1 CLA     -0.494600
     12 CGA        79.2137   56.8180   32.5613 c4         1 CLA      0.827000
     13 CGD        75.6137   54.7481   35.2463 c4         1 CLA      0.655300
     14 ND         73.7815   57.9671   37.9960 nm         1 CLA     -0.291600
     15 CED        75.6408   52.6678   36.4350 a3         1 CLA      0.005400
     16 CHA        75.2863   57.0778   36.1940 cs         1 CLA     -0.123800
     17 CHB        78.2959   60.1842   38.2986 aa         1 CLA     -0.291900
     18 CHC        75.1914   60.5202   41.9927 aa         1 CLA     -0.090400
     19 CHD        71.7057   58.4501   39.2569 aa         1 CLA     -0.052000
     20 CMA        80.0902   58.1806   36.5035 a3         1 CLA     -0.230700
     21 CMB        79.5832   62.2702   40.2804 a3         1 CLA     -0.180800
     22 CMC        72.7868   60.2101   44.0794 a3         1 CLA     -0.134000
     23 CMD        70.4868   56.3187   37.2664 a3         1 CLA     -0.141100
     24 C1         80.0781   54.8135   33.5799 a2         1 CLA      0.023000
     25 C1A        76.4743   57.8080   36.3136 ac         1 CLA     -0.015100
     26 C1B        77.6785   60.6427   39.4456 cr         1 CLA      0.054700
     27 C1C        73.9644   59.8968   41.6853 cn         1 CLA     -0.005600
     28 C1D        72.4029   57.8692   38.1700 ap         1 CLA     -0.047300
     29 O1A        79.0739   56.2922   31.4762 o2         1 CLA     -0.610800
     30 O1D        76.6260   54.4424   34.5804 o2         1 CLA     -0.558200
     31 C2         80.1680   54.3008   34.9877 c8         1 CLA     -0.325100
     32 C2A        77.7133   57.7804   35.4589 a1         1 CLA      0.098600
     33 C2B        78.2858   61.4875   40.4417 cb         1 CLA      0.088500
     34 C2C        72.7606   59.7896   42.5282 cb         1 CLA      0.053700
     35 C2D        71.8973   56.9676   37.1735 cb         1 CLA      0.058900
     36 O2A        79.7034   56.2193   33.6722 o1         1 CLA     -0.437200
     37 O2D        75.0196   53.9603   36.2255 o1         1 CLA     -0.357600
     38 C3         81.3069   53.9900   35.6127 c5         1 CLA      0.031200
     39 C3A        78.6557   58.7239   36.1887 a1         1 CLA      0.166800
     40 C3B        77.5022   61.3906   41.5979 cb         1 CLA      0.035000
     41 C3C        71.7553   59.1972   41.7586 cb         1 CLA     -0.089900
     42 C3D        72.9787   56.5954   36.4336 cb         1 CLA     -0.035900
     43 C4         82.1252   52.7628   35.3287 a3         1 CLA     -0.053300
     44 C4A        77.8322   59.2115   37.3347 ac         1 CLA      0.001800
     45 C4B        76.3150   60.7054   41.2025 cn         1 CLA     -0.020900
     46 C4C        72.2932   59.0131   40.3880 cr         1 CLA     -0.044400
     47 C4D        74.1331   57.2301   36.9462 c6         1 CLA     -0.046000
     48 C5         81.8867   54.9694   36.6167 a2         1 CLA     -0.070400
     49 C6         83.0937   54.6408   37.4553 a2         1 CLA      0.043900
     50 C7         83.3264   55.5330   38.6537 a2         1 CLA     -0.150000
     51 C8         83.6731   57.0455   38.3218 a1         1 CLA      0.064200
     52 C9         85.0574   57.1238   37.6588 a3         1 CLA     -0.259300
     53 C10        83.6123   58.0208   39.6174 a2         1 CLA     -0.071900
     54 C11        82.2966   58.2205   40.4480 a2         1 CLA      0.014500
     55 C12        82.5408   59.1644   41.5962 a2         1 CLA     -0.112100
     56 C13        83.6167   58.8906   42.6629 a1         1 CLA      0.089200
     57 C14        83.3044   57.5627   43.4182 a3         1 CLA     -0.239100
     58 C15        83.8397   60.1362   43.5922 a2         1 CLA     -0.102200
     59 C16        82.6700   60.4089   44.6194 a2         1 CLA      0.023900
     60 C17        82.6551   61.8052   45.2161 a2         1 CLA     -0.105700
     61 C18        83.7778   62.2427   46.1909 a1         1 CLA      0.206800
     62 C19        83.5383   63.6832   46.8308 a3         1 CLA     -0.280100
     63 C20        84.0251   61.2931   47.4057 a3         1 CLA     -0.280100
     64 NC         73.6552   59.3624   40.4475 nx         1 CLA     -0.309200
     65 MG         75.1256   59.1655   38.9055 mg         1 CLA      0.895000
     66 HMD3       70.4480   55.7868   38.2452 dc         1 CLA      0.064300
     67 HMD2       69.8436   57.1633   37.1619 dc         1 CLA      0.064300
     68 HMD1       70.3543   55.6635   36.5210 dc         1 CLA      0.064300
     69 HMC3       73.4451   59.5328   44.6360 dc         1 CLA      0.052100
     70 HMC2       73.1882   61.1653   44.1739 dc         1 CLA      0.052100
     71 HMC1       71.7673   60.1483   44.5340 dc         1 CLA      0.052100
     72 HMB3       80.4006   61.4935   40.3537 dc         1 CLA      0.063600
     73 HMB2       79.7487   62.6620   39.2996 dc         1 CLA      0.063600
     74 HMB1       79.6335   63.0374   41.0688 dc         1 CLA      0.063600
     75 HMA3       80.6804   57.9120   35.5581 dc         1 CLA      0.058300
     76 HMA2       80.6022   58.9513   37.0193 dc         1 CLA      0.058300
     77 HMA1       80.1169   57.4070   37.3483 dc         1 CLA      0.058300
     78 HED3       75.2935   52.0026   35.6846 dc         1 CLA      0.079300
     79 HED2       76.6830   52.6114   36.6014 dc         1 CLA      0.079300
     80 HED1       75.1660   52.3085   37.3395 dc         1 CLA      0.079300
     81 HBC3       70.8659   56.4462   41.8086 dc         1 CLA      0.016300
     82 HBC2       71.5706   56.9368   43.4538 dc         1 CLA      0.016300
     83 HBC1       69.8720   56.6247   43.0971 dc         1 CLA      0.016300
     84 HBB2       79.3122   62.4284   44.5017 da         1 CLA      0.183000
     85 HBB1       79.8550   61.5167   42.9490 da         1 CLA      0.183000
     86 HBA2       78.1488   58.5998   31.9972 dc         1 CLA      0.029400
     87 HBA1       79.4053   58.8606   33.2373 dc         1 CLA      0.029400
     88 HAC2       70.3312   59.0351   43.1801 dc         1 CLA      0.029300
     89 HAC1       69.7635   58.6670   41.5535 dc         1 CLA      0.029300
     90 HAA2       76.7485   57.6698   33.4395 dc         1 CLA      0.028700
     91 HAA1       76.9900   59.2507   34.0460 dc         1 CLA      0.028700
     92 H203       83.1580   61.0152   47.9408 dc         1 CLA      0.065600
     93 H202       84.5087   60.3661   47.0860 dc         1 CLA      0.065600
     94 H201       84.7120   61.7750   48.1206 dc         1 CLA      0.065600
     95 H193       83.2698   64.3479   45.9793 dc         1 CLA      0.065600
     96 H192       82.5929   63.5878   47.3985 dc         1 CLA      0.065600
     97 H191       84.3828   64.0537   47.4479 dc         1 CLA      0.065600
     98 H172       82.7818   62.4940   44.3627 dc         1 CLA      0.027600
     99 H171       81.6695   61.7353   45.7038 dc         1 CLA      0.027600
    100 H162       81.7206   60.3257   44.1253 dc         1 CLA      0.002900
    101 H161       82.8219   59.6107   45.3878 dc         1 CLA      0.002900
    102 H152       84.7706   59.8761   44.1033 dc         1 CLA      0.029100
    103 H151       83.9443   60.9788   42.9505 dc         1 CLA      0.029100
    104 H143       82.3736   57.6665   44.0305 dc         1 CLA      0.063600
    105 H142       83.1278   56.7593   42.7403 dc         1 CLA      0.063600
    106 H141       84.1100   57.3412   44.0526 dc         1 CLA      0.063600
    107 H122       82.7919   60.1186   41.1330 dc         1 CLA      0.032500
    108 H121       81.6183   59.2554   42.0271 dc         1 CLA      0.032500
    109 H112       81.5739   58.7445   39.7654 dc         1 CLA      0.006600
    110 H111       81.8419   57.3031   40.9395 dc         1 CLA      0.006600
    111 H102       84.3677   57.6179   40.2253 dc         1 CLA      0.024100
    112 H101       83.9692   58.9901   39.2682 dc         1 CLA      0.024100
    113 HHD        70.6384   58.2183   39.3593 da         1 CLA      0.174300
    114 HHC        75.1783   61.0816   42.9326 da         1 CLA      0.136800
    115 HHB        79.2551   60.6188   38.0509 da         1 CLA      0.138300
    116 HBD        75.0008   56.4781   34.1075 dc         1 CLA      0.107700
    117 HAB        76.9867   62.5352   43.4160 da         1 CLA      0.155200
    118 H93        85.8556   56.7301   38.2371 dc         1 CLA      0.069500
    119 H92        85.0960   56.7095   36.6385 dc         1 CLA      0.069500
    120 H91        85.2396   58.1381   37.5349 dc         1 CLA      0.069500
    121 H8         82.8070   57.5163   37.7006 dc         1 CLA      0.029300
    122 H72        82.4922   55.5735   39.3574 dc         1 CLA      0.044400
    123 H71        84.0973   55.1202   39.2251 dc         1 CLA      0.044400
    124 H62        82.7640   53.6899   37.8361 dc         1 CLA      0.015600
    125 H61        83.8624   54.6095   36.7381 dc         1 CLA      0.015600
    126 H52        81.9779   55.9104   36.0410 dc         1 CLA      0.033200
    127 H51        81.0491   55.1280   37.2852 dc         1 CLA      0.033200
    128 H43        81.6295   52.0287   34.6716 dc         1 CLA      0.037000
    129 H42        83.0716   52.9869   34.8320 dc         1 CLA      0.037000
    130 H41        82.4310   52.1680   36.1381 dc         1 CLA      0.037000
    131 H3A        78.8131   59.5632   35.6215 dc         1 CLA      0.041100
    132 H2A        78.1541   56.8238   35.3828 dc         1 CLA      0.083100
    133 H2         79.2094   53.9821   35.4853 da         1 CLA      0.180900
    134 H18        84.6299   62.2489   45.6015 dc         1 CLA     -0.003900
    135 H13        84.5120   58.6852   42.1099 dc         1 CLA      0.019700
    136 H12        79.3863   54.3295   32.9537 dc         1 CLA      0.120400
    137 H11        81.0098   54.6928   33.0349 dc         1 CLA      0.120400
    138 C1         67.1351   62.5276   50.0097 Z1         2 LUT      0.509236
    139 C2         67.2990   63.8406   50.7913 Z2         2 LUT     -0.434695
    140 C3         66.0681   64.7911   50.9622 Z3         2 LUT      0.437453
    141 O3         66.6170   66.0943   50.9211 S1         2 LUT     -0.547129
    142 C4         65.1246   64.5741   49.7589 Z4         2 LUT     -0.468603
    143 C5         65.6222   63.9240   48.4925 Z5         2 LUT      0.279246
    144 C6         66.4761   62.8743   48.5894 Z6         2 LUT     -0.305473
    145 C7         67.2154   62.4129   47.4761 Z7         2 LUT      0.069402
    146 C8         68.1497   63.0884   46.7004 Z8         2 LUT     -0.191631
    147 C9         68.7853   62.6012   45.4773 Z9         2 LUT      0.196698
    148 C10        69.6647   63.4625   44.9105 Y1         2 LUT     -0.208611
    149 C11        70.2444   63.3441   43.5340 Y2         2 LUT      0.030784
    150 C12        71.3374   64.0017   43.1592 Y3         2 LUT     -0.220316
    151 C13        72.1081   63.9226   41.9843 Y4         2 LUT      0.215937
    152 C14        73.3621   64.4608   41.9892 Y5         2 LUT     -0.185793
    153 C15        74.3521   64.4340   41.0435 Y6         2 LUT     -0.057835
    154 C16        66.2193   61.6494   50.9426 Y7         2 LUT     -0.405615
    155 C17        68.4491   61.7220   50.0936 Y7         2 LUT     -0.405615
    156 C18        65.3798   64.8263   47.3286 Y9         2 LUT     -0.369639
    157 C19        68.2219   61.4302   44.7844 W1         2 LUT     -0.333362
    158 C20        71.6976   62.9128   40.9221 W2         2 LUT     -0.323439
    159 C21        86.1528   65.5499   34.8717 Z1         2 LUT      0.406104
    160 C22        86.7042   64.8491   33.7274 Z2         2 LUT     -0.404965
    161 C23        86.5874   65.5590   32.4179 Z3         2 LUT      0.391255
    162 O23        87.1624   64.7281   31.4215 S1         2 LUT     -0.528210
    163 C24        85.1784   66.1148   32.3037 W6         2 LUT     -0.258361
    164 C25        84.2251   66.1610   33.2701 Z5         2 LUT      0.133546
    165 C26        84.5736   65.6667   34.6672 W8         2 LUT     -0.147008
    166 C27        83.9684   66.4200   35.7354 Z7         2 LUT      0.023843
    167 C28        82.7931   65.9966   36.3455 Z8         2 LUT     -0.216987
    168 C29        81.9893   66.3642   37.5632 Z9         2 LUT      0.206524
    169 C30        80.7435   65.7283   37.7822 Y1         2 LUT     -0.215556
    170 C31        79.7473   65.9608   38.8198 Y2         2 LUT      0.025142
    171 C32        78.5285   65.3946   38.9546 Y3         2 LUT     -0.212209
    172 C33        77.7209   65.6087   40.0833 Y4         2 LUT      0.240937
    173 C34        76.4759   65.0661   40.0330 Y5         2 LUT     -0.218862
    174 C35        75.4878   65.0838   41.1805 Y6         2 LUT     -0.023547
    175 C36        86.9535   66.8471   35.1033 Y7         2 LUT     -0.393485
    176 C37        86.5167   64.5734   36.0731 Y7         2 LUT     -0.393485
    177 C38        82.8604   66.8282   32.9468 Y9         2 LUT     -0.387526
    178 C39        82.5873   67.3165   38.5841 W1         2 LUT     -0.322618
    179 C40        78.3240   65.8570   41.4592 W2         2 LUT     -0.358472
    180 H403       77.9216   65.2446   42.2958 R7         2 LUT      0.097720
    181 H402       79.3772   65.7270   41.4278 R7         2 LUT      0.097720
    182 H401       78.2694   66.8940   41.6849 R7         2 LUT      0.097720
    183 H393       82.3650   66.9933   39.5796 R4         2 LUT      0.082505
    184 H392       83.7526   67.4366   38.5445 R4         2 LUT      0.082505
    185 H391       82.1150   68.2988   38.5435 R4         2 LUT      0.082505
    186 H383       82.4172   67.4211   33.7085 R1         2 LUT      0.104030
    187 H382       82.9247   67.6123   32.1321 R1         2 LUT      0.104030
    188 H381       82.0977   66.0289   32.7337 R1         2 LUT      0.104030
    189 H373       86.0965   64.9376   37.0395 T4         2 LUT      0.089537
    190 H372       86.0917   63.5288   35.9635 T4         2 LUT      0.089537
    191 H371       87.5587   64.3077   36.2632 T4         2 LUT      0.089537
    192 H363       86.7983   67.6007   34.3590 T4         2 LUT      0.089537
    193 H362       86.5334   67.3307   36.0257 T4         2 LUT      0.089537
    194 H361       88.0401   66.7387   35.2781 T4         2 LUT      0.089537
    195 H222       87.7915   64.7697   33.8922 U2         2 LUT      0.127376
    196 H221       86.2850   63.8583   33.5702 U2         2 LUT      0.127376
    197 H203       72.4189   62.5218   40.2644 R7         2 LUT      0.087068
    198 H202       71.2172   62.1049   41.3692 R7         2 LUT      0.087068
    199 H201       70.9324   63.3100   40.2316 R7         2 LUT      0.087068
    200 H193       69.0003   60.9137   44.2355 R4         2 LUT      0.089716
    201 H192       67.9163   60.6139   45.5323 R4         2 LUT      0.089716
    202 H191       67.4185   61.7399   44.1095 R4         2 LUT      0.089716
    203 H183       66.1032   65.5391   47.1170 R1         2 LUT      0.094572
    204 H182       65.3705   64.1130   46.4604 R1         2 LUT      0.094572
    205 H181       64.3236   65.2676   47.2442 R1         2 LUT      0.094572
    206 H173       68.4410   60.8068   49.4704 T4         2 LUT      0.093752
    207 H172       69.1682   62.3779   49.5608 T4         2 LUT      0.093752
    208 H171       68.8533   61.5050   51.1158 T4         2 LUT      0.093752
    209 H163       66.3600   60.6413   50.6906 T4         2 LUT      0.093752
    210 H162       66.5011   61.7669   52.0192 T4         2 LUT      0.093752
    211 H161       65.1063   61.8468   50.9277 T4         2 LUT      0.093752
    212 HO3        66.0374   66.7488   51.3024 Q1         2 LUT      0.300121
    213 H8         68.4073   64.0834   46.9198 U7         2 LUT      0.080784
    214 H7         66.9161   61.3683   47.2479 U6         2 LUT      0.042190
    215 H42        64.2683   64.0812   50.0726 U5         2 LUT      0.145166
    216 H41        64.5387   65.5155   49.4927 U5         2 LUT      0.145166
    217 H35        75.7149   65.5169   42.1748 T3         2 LUT      0.077919
    218 H34        76.1143   64.5406   39.0799 T2         2 LUT      0.073626
    219 H32        78.0681   64.7509   38.1580 T1         2 LUT      0.092510
    220 H31        79.9969   66.6345   39.6072 U9         2 LUT      0.070048
    221 H30        80.3606   65.0209   37.0209 U8         2 LUT      0.085442
    222 H3         65.6451   64.6438   51.9845 U3         2 LUT     -0.031596
    223 H28        82.2118   65.1378   35.9983 U7         2 LUT      0.084728
    224 H27        84.2840   67.2986   36.2113 U6         2 LUT      0.087291
    225 H26        84.2743   64.6060   34.6260 Q6         2 LUT      0.075325
    226 H24        84.9505   66.5500   31.3471 Q5         2 LUT      0.094482
    227 H23        87.2097   66.4675   32.5349 U3         2 LUT     -0.024869
    228 H22        67.9647   63.8088   51.6768 U2         2 LUT      0.127376
    229 H21        67.8007   64.4249   50.0658 U2         2 LUT      0.127376
    230 H15        74.0872   64.1304   40.1012 T3         2 LUT      0.093200
    231 H14        73.6998   64.7889   42.9188 T2         2 LUT      0.068865
    232 H12        71.8060   64.6035   43.9355 T1         2 LUT      0.095507
    233 H11        69.7482   62.7043   42.8777 U9         2 LUT      0.068930
    234 H10        70.0213   64.2757   45.5357 U8         2 LUT      0.083911
    235 H1         86.4907   64.2263   30.9352 Q1         2 LUT      0.297311
@<TRIPOS>BOND
    1     6     1 1
    2     7     2 1
    3     8     3 1
    4     9     4 1
    5    11     4 1
    6    12     6 1
    7    13     9 1
    8    16     9 1
    9    25     5 1
   10    25    16 1
   11    26    10 1
   12    26    17 1
   13    27    18 1
   14    28    14 1
   15    28    19 1
   16    29    12 1
   17    30    13 1
   18    31    24 1
   19    32     1 1
   20    32    25 1
   21    33    21 1
   22    33    26 1
   23    34    22 1
   24    34    27 1
   25    35    23 1
   26    35    28 1
   27    36    12 1
   28    36    24 1
   29    37    13 1
   30    37    15 1
   31    38    31 1
   32    39    20 1
   33    39    32 1
   34    40     2 1
   35    40    33 1
   36    41     3 1
   37    41    34 1
   38    42     4 1
   39    42    35 1
   40    43    38 1
   41    44     5 1
   42    44    17 1
   43    44    39 1
   44    45    10 1
   45    45    18 1
   46    45    40 1
   47    46    19 1
   48    46    41 1
   49    47    14 1
   50    47    16 1
   51    47    42 1
   52    48    38 1
   53    49    48 1
   54    50    49 1
   55    51    50 1
   56    52    51 1
   57    53    51 1
   58    54    53 1
   59    55    54 1
   60    56    55 1
   61    57    56 1
   62    58    56 1
   63    59    58 1
   64    60    59 1
   65    61    60 1
   66    62    61 1
   67    63    61 1
   68    64    27 1
   69    64    46 1
   70    65     5 1
   71    65    10 1
   72    65    64 1
   73    65    14 1
   74    66    23 1
   75    67    23 1
   76    68    23 1
   77    69    22 1
   78    70    22 1
   79    71    22 1
   80    72    21 1
   81    73    21 1
   82    74    21 1
   83    75    20 1
   84    76    20 1
   85    77    20 1
   86    78    15 1
   87    79    15 1
   88    80    15 1
   89    81     8 1
   90    82     8 1
   91    83     8 1
   92    84     7 1
   93    85     7 1
   94    86     6 1
   95    87     6 1
   96    88     3 1
   97    89     3 1
   98    90     1 1
   99    91     1 1
  100    92    63 1
  101    93    63 1
  102    94    63 1
  103    95    62 1
  104    96    62 1
  105    97    62 1
  106    98    60 1
  107    99    60 1
  108   100    59 1
  109   101    59 1
  110   102    58 1
  111   103    58 1
  112   104    57 1
  113   105    57 1
  114   106    57 1
  115   107    55 1
  116   108    55 1
  117   109    54 1
  118   110    54 1
  119   111    53 1
  120   112    53 1
  121   113    19 1
  122   114    18 1
  123   115    17 1
  124   116     9 1
  125   117     2 1
  126   118    52 1
  127   119    52 1
  128   120    52 1
  129   121    51 1
  130   122    50 1
  131   123    50 1
  132   124    49 1
  133   125    49 1
  134   126    48 1
  135   127    48 1
  136   128    43 1
  137   129    43 1
  138   130    43 1
  139   131    39 1
  140   132    32 1
  141   133    31 1
  142   134    61 1
  143   135    56 1
  144   136    24 1
  145   137    24 1
  146   139   138 1
  147   140   139 1
  148   141   140 1
  149   142   140 1
  150   143   142 1
  151   144   138 1
  152   144   143 1
  153   145   144 1
  154   146   145 1
  155   147   146 1
  156   148   147 1
  157   149   148 1
  158   150   149 1
  159   151   150 1
  160   152   151 1
  161   153   152 1
  162   154   138 1
  163   155   138 1
  164   156   143 1
  165   157   147 1
  166   158   151 1
  167   160   159 1
  168   161   160 1
  169   162   161 1
  170   163   161 1
  171   164   163 1
  172   165   159 1
  173   165   164 1
  174   166   165 1
  175   167   166 1
  176   168   167 1
  177   169   168 1
  178   170   169 1
  179   171   170 1
  180   172   171 1
  181   173   172 1
  182   174   153 1
  183   174   173 1
  184   175   159 1
  185   176   159 1
  186   177   164 1
  187   178   168 1
  188   179   172 1
  189   180   179 1
  190   181   179 1
  191   182   179 1
  192   183   178 1
  193   184   178 1
  194   185   178 1
  195   186   177 1
  196   187   177 1
  197   188   177 1
  198   189   176 1
  199   190   176 1
  200   191   176 1
  201   192   175 1
  202   193   175 1
  203   194   175 1
  204   195   160 1
  205   196   160 1
  206   197   158 1
  207   198   158 1
  208   199   158 1
  209   200   157 1
  210   201   157 1
  211   202   157 1
  212   203   156 1
  213   204   156 1
  214   205   156 1
  215   206   155 1
  216   207   155 1
  217   208   155 1
  218   209   154 1
  219   210   154 1
  220   211   154 1
  221   212   141 1
  222   213   146 1
  223   214   145 1
  224   215   142 1
  225   216   142 1
  226   217   174 1
  227   218   173 1
  228   219   171 1
  229   220   170 1
  230   221   169 1
  231   222   140 1
  232   223   167 1
  233   224   166 1
  234   225   165 1
  235   226   163 1
  236   227   161 1
  237   228   139 1
  238   229   139 1
  239   230   153 1
  240   231   152 1
  241   232   150 1
  242   233   149 1
  243   234   148 1
  244   235   162 1
  245   65    153 1
  246   65    174 1
@<TRIPOS>SUBSTRUCTURE
      1 CLA               1 ****               0 ****  **** 
      2 LUT             138 ****               0 ****  **** 
