@<TRIPOS>MOLECULE
Cpptraj generated mol2 file.
  235   246     2     0     0
SMALL
USER_CHARGES


@<TRIPOS>ATOM
      1 CAA        78.6126   58.4613   35.3616 a2         1 CLA     -0.055900
      2 CAB        78.4841   62.6193   44.0383 c8         1 CLA     -0.148500
      3 CAC        71.8281   58.4546   43.8576 a2         1 CLA     -0.012600
      4 CAD        74.4610   55.8778   36.8015 ck         1 CLA      0.398800
      5 NA         77.4829   59.0867   38.6304 ns         1 CLA     -0.225500
      6 CBA        80.0358   58.5207   34.7219 a2         1 CLA     -0.135000
      7 CBB        79.6423   62.6686   44.7506 c0         1 CLA     -0.395200
      8 CBC        72.0530   56.9823   44.3247 a3         1 CLA     -0.037700
      9 CBD        75.8113   56.4635   36.4165 a1         1 CLA     -0.053900
     10 NB         77.3058   60.8625   41.0511 nm         1 CLA     -0.295700
     11 OBD        73.9441   54.9049   36.2477 o2         1 CLA     -0.494600
     12 CGA        80.8880   57.2773   34.5895 c4         1 CLA      0.827000
     13 CGD        76.7955   55.3275   36.4352 c4         1 CLA      0.655300
     14 ND         74.5368   58.2935   39.2749 nm         1 CLA     -0.291600
     15 CED        77.7385   53.6185   37.7328 a3         1 CLA      0.005400
     16 CHA        76.1504   57.5524   37.4125 cs         1 CLA     -0.123800
     17 CHB        79.2835   60.4957   39.5655 aa         1 CLA     -0.291900
     18 CHC        75.9264   61.2034   43.0100 aa         1 CLA     -0.090400
     19 CHD        72.8024   58.1670   40.9440 aa         1 CLA     -0.052000
     20 CMA        80.4407   57.7042   38.7879 a3         1 CLA     -0.230700
     21 CMB        80.7192   62.3363   41.6839 a3         1 CLA     -0.180800
     22 CMC        73.7094   60.7265   45.1870 a3         1 CLA     -0.134000
     23 CMD        71.6403   56.0376   38.7628 a3         1 CLA     -0.141100
     24 C1         82.5375   56.0023   35.6492 a2         1 CLA      0.023000
     25 C1A        77.3388   58.2228   37.5748 ac         1 CLA     -0.015100
     26 C1B        78.6260   61.0556   40.6811 cr         1 CLA      0.054700
     27 C1C        74.7936   60.4006   42.8116 cn         1 CLA     -0.005600
     28 C1D        73.3168   57.8384   39.6925 ap         1 CLA     -0.047300
     29 O1A        81.0291   56.6025   33.5818 o2         1 CLA     -0.610800
     30 O1D        77.4724   54.9893   35.4792 o2         1 CLA     -0.558200
     31 C2         83.0057   55.8032   37.0011 c8         1 CLA     -0.325100
     32 C2A        78.6385   58.0022   36.8070 a1         1 CLA      0.098600
     33 C2B        79.2814   61.8279   41.7203 cb         1 CLA      0.088500
     34 C2C        73.8052   60.1041   43.8358 cb         1 CLA      0.053700
     35 C2D        72.8515   56.8793   38.6770 cb         1 CLA      0.058900
     36 O2A        81.4936   57.0320   35.7774 o1         1 CLA     -0.437200
     37 O2D        76.8618   54.7841   37.6631 o1         1 CLA     -0.357600
     38 C3         82.9783   54.6518   37.6999 c5         1 CLA      0.031200
     39 C3A        79.6995   58.7130   37.7683 a1         1 CLA      0.166800
     40 C3B        78.2961   61.9905   42.7645 cb         1 CLA      0.035000
     41 C3C        72.9204   59.2590   43.2188 cb         1 CLA     -0.089900
     42 C3D        73.9628   56.7119   37.7974 cb         1 CLA     -0.035900
     43 C4         81.8097   54.2334   38.4772 a3         1 CLA     -0.053300
     44 C4A        78.7930   59.5514   38.7052 ac         1 CLA      0.001800
     45 C4B        77.0540   61.4161   42.2106 cn         1 CLA     -0.020900
     46 C4C        73.4197   59.0332   41.8603 cr         1 CLA     -0.044400
     47 C4D        74.9883   57.6017   38.2336 c6         1 CLA     -0.046000
     48 C5         84.2195   53.7905   37.6542 a2         1 CLA     -0.070400
     49 C6         85.6740   54.4304   37.9890 a2         1 CLA      0.043900
     50 C7         85.6393   55.0428   39.3597 a2         1 CLA     -0.150000
     51 C8         86.7448   56.1583   39.6213 a1         1 CLA      0.064200
     52 C9         88.2119   55.6911   39.2199 a3         1 CLA     -0.259300
     53 C10        86.7108   56.7857   41.1065 a2         1 CLA     -0.071900
     54 C11        85.3319   57.4623   41.4124 a2         1 CLA      0.014500
     55 C12        85.3936   58.4039   42.6525 a2         1 CLA     -0.112100
     56 C13        85.7096   57.7895   44.0378 a1         1 CLA      0.089200
     57 C14        84.7476   56.6942   44.5254 a3         1 CLA     -0.239100
     58 C15        85.8181   58.8386   45.1445 a2         1 CLA     -0.102200
     59 C16        84.4912   59.7204   45.3081 a2         1 CLA      0.023900
     60 C17        84.5634   60.5726   46.5534 a2         1 CLA     -0.105700
     61 C18        83.3090   61.3277   46.8904 a1         1 CLA      0.206800
     62 C19        82.0111   60.4831   47.0530 a3         1 CLA     -0.280100
     63 C20        83.5454   62.0694   48.2490 a3         1 CLA     -0.280100
     64 NC         74.5829   59.7447   41.6620 nx         1 CLA     -0.309200
     65 MG         75.8544   59.6407   40.1062 mg         1 CLA      0.895000
     66 HMD3       71.6629   55.4326   39.7217 dc         1 CLA      0.064300
     67 HMD2       70.7087   56.6094   38.7788 dc         1 CLA      0.064300
     68 HMD1       71.6593   55.3218   37.9178 dc         1 CLA      0.064300
     69 HMC3       72.7094   60.7245   45.5062 dc         1 CLA      0.052100
     70 HMC2       74.3318   60.2474   45.9392 dc         1 CLA      0.052100
     71 HMC1       73.9125   61.7405   45.1454 dc         1 CLA      0.052100
     72 HMB3       80.8018   62.7735   40.7259 dc         1 CLA      0.063600
     73 HMB2       80.7427   63.1041   42.4296 dc         1 CLA      0.063600
     74 HMB1       81.3688   61.4953   41.8769 dc         1 CLA      0.063600
     75 HMA3       79.7928   57.0300   39.4022 dc         1 CLA      0.058300
     76 HMA2       81.0406   57.0728   38.2220 dc         1 CLA      0.058300
     77 HMA1       81.0904   58.1847   39.4857 dc         1 CLA      0.058300
     78 HED3       77.2025   52.7632   37.3690 dc         1 CLA      0.079300
     79 HED2       78.6587   53.8352   37.2556 dc         1 CLA      0.079300
     80 HED1       77.9236   53.2954   38.8009 dc         1 CLA      0.079300
     81 HBC3       72.8343   56.8653   45.0653 dc         1 CLA      0.016300
     82 HBC2       71.1158   56.5917   44.5816 dc         1 CLA      0.016300
     83 HBC1       72.4374   56.3259   43.5867 dc         1 CLA      0.016300
     84 HBB2       79.7845   63.0382   45.7604 da         1 CLA      0.183000
     85 HBB1       80.6013   62.2590   44.4640 da         1 CLA      0.183000
     86 HBA2       80.0392   58.8732   33.7249 dc         1 CLA      0.029400
     87 HBA1       80.5966   59.3467   35.2014 dc         1 CLA      0.029400
     88 HAC2       71.4785   58.9621   44.7623 dc         1 CLA      0.029300
     89 HAC1       70.9428   58.5493   43.2640 dc         1 CLA      0.029300
     90 HAA2       78.0025   57.7606   34.8105 dc         1 CLA      0.028700
     91 HAA1       78.2393   59.4454   35.2264 dc         1 CLA      0.028700
     92 H203       83.9189   61.3572   48.9985 dc         1 CLA      0.065600
     93 H202       84.3425   62.7850   48.1371 dc         1 CLA      0.065600
     94 H201       82.7279   62.6791   48.6120 dc         1 CLA      0.065600
     95 H193       81.1878   61.1172   47.3683 dc         1 CLA      0.065600
     96 H192       81.6851   59.9052   46.2187 dc         1 CLA      0.065600
     97 H191       82.1517   59.6623   47.7532 dc         1 CLA      0.065600
     98 H172       84.7699   59.9565   47.4138 dc         1 CLA      0.027600
     99 H171       85.4494   61.2204   46.3409 dc         1 CLA      0.027600
    100 H162       84.5875   60.2775   44.3989 dc         1 CLA      0.002900
    101 H161       83.6274   59.0546   45.3374 dc         1 CLA      0.002900
    102 H152       86.0943   58.2649   46.0525 dc         1 CLA      0.029100
    103 H151       86.6002   59.5933   44.9505 dc         1 CLA      0.029100
    104 H143       83.7477   56.9336   44.6012 dc         1 CLA      0.063600
    105 H142       84.8563   55.8389   43.8473 dc         1 CLA      0.063600
    106 H141       85.0323   56.4456   45.5515 dc         1 CLA      0.063600
    107 H122       85.9722   59.2596   42.3461 dc         1 CLA      0.032500
    108 H121       84.3489   58.6991   42.7165 dc         1 CLA      0.032500
    109 H112       85.0887   57.9864   40.4937 dc         1 CLA      0.006600
    110 H111       84.5830   56.7639   41.5546 dc         1 CLA      0.006600
    111 H102       86.8362   56.0466   41.8921 dc         1 CLA      0.024100
    112 H101       87.4958   57.5713   41.2045 dc         1 CLA      0.024100
    113 HHD        71.9420   57.6072   41.2972 da         1 CLA      0.174300
    114 HHC        76.0539   61.6356   44.0147 da         1 CLA      0.136800
    115 HHB        80.3021   60.6513   39.2832 da         1 CLA      0.138300
    116 HBD        75.6332   56.7910   35.3550 dc         1 CLA      0.107700
    117 HAB        77.5989   63.0113   44.5005 da         1 CLA      0.155200
    118 H93        88.3283   55.3222   38.2577 dc         1 CLA      0.069500
    119 H92        88.9243   56.5276   39.2755 dc         1 CLA      0.069500
    120 H91        88.5906   54.8541   39.8480 dc         1 CLA      0.069500
    121 H8         86.5582   56.9533   38.9335 dc         1 CLA      0.029300
    122 H72        84.6063   55.3460   39.4649 dc         1 CLA      0.044400
    123 H71        85.9046   54.2968   40.0972 dc         1 CLA      0.044400
    124 H62        86.4403   53.6980   37.7859 dc         1 CLA      0.015600
    125 H61        85.8827   55.1917   37.2229 dc         1 CLA      0.015600
    126 H52        84.1075   53.0420   38.4918 dc         1 CLA      0.033200
    127 H51        84.2327   53.5078   36.6181 dc         1 CLA      0.033200
    128 H43        82.0072   54.1479   39.5166 dc         1 CLA      0.037000
    129 H42        80.9407   54.9049   38.3850 dc         1 CLA      0.037000
    130 H41        81.3931   53.2682   38.2809 dc         1 CLA      0.037000
    131 H3A        80.5115   59.2695   37.2527 dc         1 CLA      0.041100
    132 H2A        78.9862   56.9568   36.9673 dc         1 CLA      0.083100
    133 H2         83.5808   56.6034   37.4583 da         1 CLA      0.180900
    134 H18        83.0840   62.1190   46.2038 dc         1 CLA     -0.003900
    135 H13        86.7483   57.3274   44.0380 dc         1 CLA      0.019700
    136 H12        82.2735   55.0343   35.2037 dc         1 CLA      0.120400
    137 H11        83.3302   56.4068   35.1419 dc         1 CLA      0.120400
    138 C1         68.0225   61.8066   50.7998 Z1         2 LUT      0.509236
    139 C2         66.7804   61.4230   51.5147 Z2         2 LUT     -0.434695
    140 C3         65.8157   62.6409   51.7768 Z3         2 LUT      0.437453
    141 O3         66.0599   63.1575   53.1305 S1         2 LUT     -0.547129
    142 C4         66.0942   63.8039   50.8112 Z4         2 LUT     -0.468603
    143 C5         66.8048   63.5926   49.5412 Z5         2 LUT      0.279246
    144 C6         67.6977   62.6442   49.5210 Z6         2 LUT     -0.305473
    145 C7         68.1974   62.1660   48.2540 Z7         2 LUT      0.069402
    146 C8         69.2477   62.6834   47.5548 Z8         2 LUT     -0.191631
    147 C9         69.7931   62.2040   46.2719 Z9         2 LUT      0.196698
    148 C10        70.7225   63.0778   45.7577 Y1         2 LUT     -0.208611
    149 C11        71.4414   63.0689   44.4823 Y2         2 LUT      0.030784
    150 C12        72.4217   63.8640   44.1090 Y3         2 LUT     -0.220316
    151 C13        73.2507   63.7318   42.8986 Y4         2 LUT      0.215937
    152 C14        74.4200   64.4341   42.8982 Y5         2 LUT     -0.185793
    153 C15        75.5059   64.5494   41.9411 Y6         2 LUT     -0.057835
    154 C16        68.7126   60.4286   50.3983 Y7         2 LUT     -0.405615
    155 C17        68.9175   62.6318   51.7649 Y7         2 LUT     -0.405615
    156 C18        66.1126   64.1687   48.3888 Y9         2 LUT     -0.369639
    157 C19        69.1918   61.0365   45.4950 W1         2 LUT     -0.333362
    158 C20        72.7497   62.8009   41.7962 W2         2 LUT     -0.323439
    159 C21        86.9829   65.4826   36.2556 Z1         2 LUT      0.406104
    160 C22        87.6844   65.0634   34.9153 Z2         2 LUT     -0.404965
    161 C23        87.7455   66.0089   33.7523 Z3         2 LUT      0.391255
    162 O23        88.5260   65.3395   32.7449 S1         2 LUT     -0.528210
    163 C24        86.3495   66.5689   33.4844 W6         2 LUT     -0.258361
    164 C25        85.3913   66.7232   34.4331 Z5         2 LUT      0.133546
    165 C26        85.5869   66.0980   35.8272 W8         2 LUT     -0.147008
    166 C27        84.9094   66.8732   36.9271 Z7         2 LUT      0.023843
    167 C28        83.8408   66.2809   37.5249 Z8         2 LUT     -0.216987
    168 C29        83.1805   66.6801   38.7335 Z9         2 LUT      0.206524
    169 C30        81.9764   66.1509   38.9549 Y1         2 LUT     -0.215556
    170 C31        81.0669   66.4104   39.9814 Y2         2 LUT      0.025142
    171 C32        79.9458   65.7005   40.3652 Y3         2 LUT     -0.212209
    172 C33        78.9906   66.0509   41.3095 Y4         2 LUT      0.240937
    173 C34        77.8084   65.2357   41.3639 Y5         2 LUT     -0.218862
    174 C35        76.6651   65.2669   42.2567 Y6         2 LUT     -0.023547
    175 C36        87.9034   66.5206   37.0131 Y7         2 LUT     -0.393485
    176 C37        86.9033   64.2541   37.1809 Y7         2 LUT     -0.393485
    177 C38        84.0373   67.2599   34.0334 Y9         2 LUT     -0.387526
    178 C39        83.8507   67.8019   39.5369 W1         2 LUT     -0.322618
    179 C40        79.3434   67.2555   42.2701 W2         2 LUT     -0.358472
    180 H403       78.5051   67.3412   42.8896 R7         2 LUT      0.097720
    181 H402       80.2044   67.0326   42.8333 R7         2 LUT      0.097720
    182 H401       79.5016   68.2141   41.7817 R7         2 LUT      0.097720
    183 H393       83.2630   68.0150   40.4356 R4         2 LUT      0.082505
    184 H392       84.8970   67.5960   39.7398 R4         2 LUT      0.082505
    185 H391       83.7374   68.6303   38.8020 R4         2 LUT      0.082505
    186 H383       84.1827   67.9363   33.1220 R1         2 LUT      0.104030
    187 H382       83.3185   66.4662   33.6732 R1         2 LUT      0.104030
    188 H381       83.5777   67.8495   34.8767 R1         2 LUT      0.104030
    189 H373       86.2725   64.3967   38.0222 T4         2 LUT      0.089537
    190 H372       86.4864   63.3328   36.7047 T4         2 LUT      0.089537
    191 H371       87.8541   63.9804   37.6188 T4         2 LUT      0.089537
    192 H363       88.7934   66.1580   37.3867 T4         2 LUT      0.089537
    193 H362       88.0919   67.3560   36.4160 T4         2 LUT      0.089537
    194 H361       87.4944   67.1023   37.8286 T4         2 LUT      0.089537
    195 H222       88.7116   64.7583   35.0877 U2         2 LUT      0.127376
    196 H221       87.0758   64.1653   34.6377 U2         2 LUT      0.127376
    197 H203       73.2027   62.9205   40.8289 R7         2 LUT      0.087068
    198 H202       72.8011   61.7679   42.0312 R7         2 LUT      0.087068
    199 H201       71.7311   63.0386   41.5154 R7         2 LUT      0.087068
    200 H193       69.4046   61.1089   44.4272 R4         2 LUT      0.089716
    201 H192       69.6539   60.1200   45.8412 R4         2 LUT      0.089716
    202 H191       68.1195   61.0922   45.5747 R4         2 LUT      0.089716
    203 H183       65.0750   64.3955   48.6267 R1         2 LUT      0.094572
    204 H182       66.4887   65.1155   47.9867 R1         2 LUT      0.094572
    205 H181       66.2734   63.5285   47.4943 R1         2 LUT      0.094572
    206 H173       70.0026   62.7991   51.4678 T4         2 LUT      0.093752
    207 H172       68.5777   63.6647   51.8165 T4         2 LUT      0.093752
    208 H171       68.9775   62.2090   52.7724 T4         2 LUT      0.093752
    209 H163       68.1965   59.9095   49.6700 T4         2 LUT      0.093752
    210 H162       69.6634   60.6661   49.9988 T4         2 LUT      0.093752
    211 H161       68.9482   59.7510   51.2009 T4         2 LUT      0.093752
    212 HO3        65.5912   62.5879   53.7586 Q1         2 LUT      0.300121
    213 H8         69.6849   63.6010   48.0102 U7         2 LUT      0.080784
    214 H7         67.8780   61.1988   47.8250 U6         2 LUT      0.042190
    215 H42        65.0962   64.2370   50.7378 U5         2 LUT      0.145166
    216 H41        66.3761   64.7175   51.2656 U5         2 LUT      0.145166
    217 H35        76.7816   65.7833   43.2385 T3         2 LUT      0.077919
    218 H34        77.8553   64.3361   40.6692 T2         2 LUT      0.073626
    219 H32        79.7803   64.8671   39.7961 T1         2 LUT      0.092510
    220 H31        81.2139   67.3581   40.5671 U9         2 LUT      0.070048
    221 H30        81.7639   65.2729   38.2916 U8         2 LUT      0.085442
    222 H3         64.7849   62.3196   51.4921 U3         2 LUT     -0.031596
    223 H28        83.5189   65.3251   37.0993 U7         2 LUT      0.084728
    224 H27        85.4003   67.8358   37.2448 U6         2 LUT      0.087291
    225 H26        85.0177   65.1481   35.6404 Q6         2 LUT      0.075325
    226 H24        86.1696   66.8693   32.4693 Q5         2 LUT      0.094482
    227 H23        88.3277   66.8289   34.2472 U3         2 LUT     -0.024869
    228 H22        66.1662   60.7472   50.8999 U2         2 LUT      0.127376
    229 H21        67.0927   60.8180   52.4136 U2         2 LUT      0.127376
    230 H15        75.3616   64.0390   41.0400 T3         2 LUT      0.093200
    231 H14        74.6580   64.9650   43.8304 T2         2 LUT      0.068865
    232 H12        72.7129   64.6530   44.8342 T1         2 LUT      0.095507
    233 H11        71.1958   62.2868   43.7135 U9         2 LUT      0.068930
    234 H10        70.9990   63.9249   46.4025 U8         2 LUT      0.083911
    235 H1         88.2206   65.3367   31.8142 Q1         2 LUT      0.297311
@<TRIPOS>BOND
    1     6     1 1
    2     7     2 1
    3     8     3 1
    4     9     4 1
    5    11     4 1
    6    12     6 1
    7    13     9 1
    8    16     9 1
    9    25     5 1
   10    25    16 1
   11    26    10 1
   12    26    17 1
   13    27    18 1
   14    28    14 1
   15    28    19 1
   16    29    12 1
   17    30    13 1
   18    31    24 1
   19    32     1 1
   20    32    25 1
   21    33    21 1
   22    33    26 1
   23    34    22 1
   24    34    27 1
   25    35    23 1
   26    35    28 1
   27    36    12 1
   28    36    24 1
   29    37    13 1
   30    37    15 1
   31    38    31 1
   32    39    20 1
   33    39    32 1
   34    40     2 1
   35    40    33 1
   36    41     3 1
   37    41    34 1
   38    42     4 1
   39    42    35 1
   40    43    38 1
   41    44     5 1
   42    44    17 1
   43    44    39 1
   44    45    10 1
   45    45    18 1
   46    45    40 1
   47    46    19 1
   48    46    41 1
   49    47    14 1
   50    47    16 1
   51    47    42 1
   52    48    38 1
   53    49    48 1
   54    50    49 1
   55    51    50 1
   56    52    51 1
   57    53    51 1
   58    54    53 1
   59    55    54 1
   60    56    55 1
   61    57    56 1
   62    58    56 1
   63    59    58 1
   64    60    59 1
   65    61    60 1
   66    62    61 1
   67    63    61 1
   68    64    27 1
   69    64    46 1
   70    65     5 1
   71    65    10 1
   72    65    64 1
   73    65    14 1
   74    66    23 1
   75    67    23 1
   76    68    23 1
   77    69    22 1
   78    70    22 1
   79    71    22 1
   80    72    21 1
   81    73    21 1
   82    74    21 1
   83    75    20 1
   84    76    20 1
   85    77    20 1
   86    78    15 1
   87    79    15 1
   88    80    15 1
   89    81     8 1
   90    82     8 1
   91    83     8 1
   92    84     7 1
   93    85     7 1
   94    86     6 1
   95    87     6 1
   96    88     3 1
   97    89     3 1
   98    90     1 1
   99    91     1 1
  100    92    63 1
  101    93    63 1
  102    94    63 1
  103    95    62 1
  104    96    62 1
  105    97    62 1
  106    98    60 1
  107    99    60 1
  108   100    59 1
  109   101    59 1
  110   102    58 1
  111   103    58 1
  112   104    57 1
  113   105    57 1
  114   106    57 1
  115   107    55 1
  116   108    55 1
  117   109    54 1
  118   110    54 1
  119   111    53 1
  120   112    53 1
  121   113    19 1
  122   114    18 1
  123   115    17 1
  124   116     9 1
  125   117     2 1
  126   118    52 1
  127   119    52 1
  128   120    52 1
  129   121    51 1
  130   122    50 1
  131   123    50 1
  132   124    49 1
  133   125    49 1
  134   126    48 1
  135   127    48 1
  136   128    43 1
  137   129    43 1
  138   130    43 1
  139   131    39 1
  140   132    32 1
  141   133    31 1
  142   134    61 1
  143   135    56 1
  144   136    24 1
  145   137    24 1
  146   139   138 1
  147   140   139 1
  148   141   140 1
  149   142   140 1
  150   143   142 1
  151   144   138 1
  152   144   143 1
  153   145   144 1
  154   146   145 1
  155   147   146 1
  156   148   147 1
  157   149   148 1
  158   150   149 1
  159   151   150 1
  160   152   151 1
  161   153   152 1
  162   154   138 1
  163   155   138 1
  164   156   143 1
  165   157   147 1
  166   158   151 1
  167   160   159 1
  168   161   160 1
  169   162   161 1
  170   163   161 1
  171   164   163 1
  172   165   159 1
  173   165   164 1
  174   166   165 1
  175   167   166 1
  176   168   167 1
  177   169   168 1
  178   170   169 1
  179   171   170 1
  180   172   171 1
  181   173   172 1
  182   174   153 1
  183   174   173 1
  184   175   159 1
  185   176   159 1
  186   177   164 1
  187   178   168 1
  188   179   172 1
  189   180   179 1
  190   181   179 1
  191   182   179 1
  192   183   178 1
  193   184   178 1
  194   185   178 1
  195   186   177 1
  196   187   177 1
  197   188   177 1
  198   189   176 1
  199   190   176 1
  200   191   176 1
  201   192   175 1
  202   193   175 1
  203   194   175 1
  204   195   160 1
  205   196   160 1
  206   197   158 1
  207   198   158 1
  208   199   158 1
  209   200   157 1
  210   201   157 1
  211   202   157 1
  212   203   156 1
  213   204   156 1
  214   205   156 1
  215   206   155 1
  216   207   155 1
  217   208   155 1
  218   209   154 1
  219   210   154 1
  220   211   154 1
  221   212   141 1
  222   213   146 1
  223   214   145 1
  224   215   142 1
  225   216   142 1
  226   217   174 1
  227   218   173 1
  228   219   171 1
  229   220   170 1
  230   221   169 1
  231   222   140 1
  232   223   167 1
  233   224   166 1
  234   225   165 1
  235   226   163 1
  236   227   161 1
  237   228   139 1
  238   229   139 1
  239   230   153 1
  240   231   152 1
  241   232   150 1
  242   233   149 1
  243   234   148 1
  244   235   162 1
  245   65    153 1
  246   65    174 1
@<TRIPOS>SUBSTRUCTURE
      1 CLA               1 ****               0 ****  **** 
      2 LUT             138 ****               0 ****  **** 
