@<TRIPOS>MOLECULE
Cpptraj generated mol2 file.
  235   246     2     0     0
SMALL
USER_CHARGES


@<TRIPOS>ATOM
      1 CAA        79.9307   58.1058   35.1466 a2         1 CLA     -0.055900
      2 CAB        80.2177   62.0000   44.0749 c8         1 CLA     -0.148500
      3 CAC        73.1817   58.2010   43.9895 a2         1 CLA     -0.012600
      4 CAD        75.8478   55.5858   36.6329 ck         1 CLA      0.398800
      5 NA         78.9889   58.7033   38.6499 ns         1 CLA     -0.225500
      6 CBA        81.0803   57.7267   34.2012 a2         1 CLA     -0.135000
      7 CBB        81.4542   62.0939   44.6298 c0         1 CLA     -0.395200
      8 CBC        73.1378   56.6983   44.1348 a3         1 CLA     -0.037700
      9 CBD        77.2883   56.0540   36.3659 a1         1 CLA     -0.053900
     10 NB         78.9215   60.1993   41.1140 nm         1 CLA     -0.295700
     11 OBD        75.3256   54.6227   36.0410 o2         1 CLA     -0.494600
     12 CGA        81.3056   56.2354   33.9903 c4         1 CLA      0.827000
     13 CGD        78.3031   54.8473   36.6685 c4         1 CLA      0.655300
     14 ND         76.1488   57.9107   39.3306 nm         1 CLA     -0.291600
     15 CED        79.1879   53.4784   38.2418 a3         1 CLA      0.005400
     16 CHA        77.6067   57.1844   37.3930 cs         1 CLA     -0.123800
     17 CHB        80.7260   60.1962   39.4071 aa         1 CLA     -0.291900
     18 CHC        77.6315   60.5182   43.2274 aa         1 CLA     -0.090400
     19 CHD        74.2611   57.7717   40.9895 aa         1 CLA     -0.052000
     20 CMA        82.4160   58.0678   37.5403 a3         1 CLA     -0.230700
     21 CMB        82.1920   62.0667   41.3441 a3         1 CLA     -0.180800
     22 CMC        75.4537   59.9136   45.5240 a3         1 CLA     -0.134000
     23 CMD        73.0942   55.7651   38.5859 a3         1 CLA     -0.141100
     24 C1         82.2465   54.2277   34.9203 a2         1 CLA      0.023000
     25 C1A        78.8104   57.8876   37.5416 ac         1 CLA     -0.015100
     26 C1B        80.1390   60.5645   40.6460 cr         1 CLA      0.054700
     27 C1C        76.4138   59.8152   43.0156 cn         1 CLA     -0.005600
     28 C1D        74.8660   57.4584   39.7069 ap         1 CLA     -0.047300
     29 O1A        80.8155   55.5426   33.0944 o2         1 CLA     -0.610800
     30 O1D        79.2483   54.5305   35.9391 o2         1 CLA     -0.558200
     31 C2         82.8868   53.7806   36.3346 c8         1 CLA     -0.325100
     32 C2A        80.0387   57.7651   36.6879 a1         1 CLA      0.098600
     33 C2B        80.7845   61.3740   41.6230 cb         1 CLA      0.088500
     34 C2C        75.4234   59.5097   44.0126 cb         1 CLA      0.053700
     35 C2D        74.3423   56.6132   38.6259 cb         1 CLA      0.058900
     36 O2A        82.0760   55.6919   34.9954 o1         1 CLA     -0.437200
     37 O2D        78.1317   54.4775   38.0227 o1         1 CLA     -0.357600
     38 C3         84.0267   53.1464   36.4663 c5         1 CLA      0.031200
     39 C3A        81.0439   58.7738   37.2965 a1         1 CLA      0.166800
     40 C3B        79.9892   61.3215   42.7962 cb         1 CLA      0.035000
     41 C3C        74.5012   58.7273   43.3495 cb         1 CLA     -0.089900
     42 C3D        75.4294   56.3892   37.7978 cb         1 CLA     -0.035900
     43 C4         84.1904   51.6019   36.3214 a3         1 CLA     -0.053300
     44 C4A        80.2361   59.2124   38.5603 ac         1 CLA      0.001800
     45 C4B        78.7369   60.7096   42.3858 cn         1 CLA     -0.020900
     46 C4C        74.9265   58.5124   42.0083 cr         1 CLA     -0.044400
     47 C4D        76.4454   57.2396   38.2062 c6         1 CLA     -0.046000
     48 C5         85.2730   54.0867   36.6687 a2         1 CLA     -0.070400
     49 C6         85.2606   54.5496   38.1279 a2         1 CLA      0.043900
     50 C7         86.4491   55.4526   38.5215 a2         1 CLA     -0.150000
     51 C8         86.3813   55.9052   39.9431 a1         1 CLA      0.064200
     52 C9         85.1382   56.7065   40.2853 a3         1 CLA     -0.259300
     53 C10        87.7958   56.5194   40.3493 a2         1 CLA     -0.071900
     54 C11        88.0857   56.9857   41.7591 a2         1 CLA      0.014500
     55 C12        88.2398   55.7771   42.7512 a2         1 CLA     -0.112100
     56 C13        88.6024   56.2892   44.2126 a1         1 CLA      0.089200
     57 C14        89.6362   55.3566   44.8670 a3         1 CLA     -0.239100
     58 C15        87.3708   56.3414   45.0713 a2         1 CLA     -0.102200
     59 C16        87.5478   57.1822   46.3591 a2         1 CLA      0.023900
     60 C17        86.2832   56.9537   47.2329 a2         1 CLA     -0.105700
     61 C18        86.4360   57.6592   48.6079 a1         1 CLA      0.206800
     62 C19        86.5452   59.1676   48.4760 a3         1 CLA     -0.280100
     63 C20        85.2209   57.3869   49.6498 a3         1 CLA     -0.280100
     64 NC         76.1365   59.2470   41.8179 nx         1 CLA     -0.309200
     65 MG         77.5105   59.1898   40.2120 mg         1 CLA      0.895000
     66 HMD3       73.1190   55.1286   39.4450 dc         1 CLA      0.064300
     67 HMD2       72.2423   56.3634   38.3932 dc         1 CLA      0.064300
     68 HMD1       73.2964   55.1339   37.7432 dc         1 CLA      0.064300
     69 HMC3       75.1369   58.9496   45.9689 dc         1 CLA      0.052100
     70 HMC2       76.5138   60.1753   45.7800 dc         1 CLA      0.052100
     71 HMC1       74.6851   60.6428   45.9007 dc         1 CLA      0.052100
     72 HMB3       82.2264   62.8608   42.0751 dc         1 CLA      0.063600
     73 HMB2       83.0265   61.3784   41.2859 dc         1 CLA      0.063600
     74 HMB1       81.9912   62.5083   40.3679 dc         1 CLA      0.063600
     75 HMA3       82.9657   58.6887   38.2873 dc         1 CLA      0.058300
     76 HMA2       82.1860   57.0302   37.9004 dc         1 CLA      0.058300
     77 HMA1       83.0070   57.9516   36.6213 dc         1 CLA      0.058300
     78 HED3       79.2796   52.6403   37.4997 dc         1 CLA      0.079300
     79 HED2       80.1906   53.9048   38.2743 dc         1 CLA      0.079300
     80 HED1       79.0295   52.9661   39.2417 dc         1 CLA      0.079300
     81 HBC3       73.2835   56.1965   43.1605 dc         1 CLA      0.016300
     82 HBC2       74.0337   56.4783   44.7547 dc         1 CLA      0.016300
     83 HBC1       72.1778   56.3099   44.5361 dc         1 CLA      0.016300
     84 HBB2       81.6924   62.8036   45.4592 da         1 CLA      0.183000
     85 HBB1       82.3506   61.6161   44.1218 da         1 CLA      0.183000
     86 HBA2       80.8341   58.0381   33.2165 dc         1 CLA      0.029400
     87 HBA1       82.0307   58.0941   34.6027 dc         1 CLA      0.029400
     88 HAC2       73.0504   58.6200   44.9675 dc         1 CLA      0.029300
     89 HAC1       72.3598   58.5339   43.3484 dc         1 CLA      0.029300
     90 HAA2       79.0960   57.6006   34.6885 dc         1 CLA      0.028700
     91 HAA1       79.8103   59.1800   35.0644 dc         1 CLA      0.028700
     92 H203       84.3442   57.4328   49.0794 dc         1 CLA      0.065600
     93 H202       85.2797   56.3922   50.0665 dc         1 CLA      0.065600
     94 H201       85.1299   57.9460   50.6067 dc         1 CLA      0.065600
     95 H193       87.5722   59.4662   48.2993 dc         1 CLA      0.065600
     96 H192       85.7736   59.5698   47.8470 dc         1 CLA      0.065600
     97 H191       86.2536   59.5675   49.5022 dc         1 CLA      0.065600
     98 H172       85.3050   57.1470   46.7758 dc         1 CLA      0.027600
     99 H171       86.3274   55.9175   47.6241 dc         1 CLA      0.027600
    100 H162       88.3423   56.8441   47.0408 dc         1 CLA      0.002900
    101 H161       87.7106   58.1906   46.0450 dc         1 CLA      0.002900
    102 H152       86.6326   56.9063   44.5497 dc         1 CLA      0.029100
    103 H151       87.0409   55.3240   45.3376 dc         1 CLA      0.029100
    104 H143       90.5477   55.3670   44.2783 dc         1 CLA      0.063600
    105 H142       89.9016   55.7442   45.8376 dc         1 CLA      0.063600
    106 H141       89.2324   54.3520   44.8425 dc         1 CLA      0.063600
    107 H122       87.2707   55.2449   42.7232 dc         1 CLA      0.032500
    108 H121       88.9111   55.0903   42.3139 dc         1 CLA      0.032500
    109 H112       89.0326   57.5561   41.8248 dc         1 CLA      0.006600
    110 H111       87.2381   57.6360   42.1808 dc         1 CLA      0.006600
    111 H102       88.5118   55.6980   40.0494 dc         1 CLA      0.024100
    112 H101       87.9607   57.3174   39.7043 dc         1 CLA      0.024100
    113 HHD        73.3140   57.2785   41.1860 da         1 CLA      0.174300
    114 HHC        77.7286   60.9378   44.1988 da         1 CLA      0.136800
    115 HHB        81.6711   60.5601   39.1711 da         1 CLA      0.138300
    116 HBD        77.4390   56.4047   35.3871 dc         1 CLA      0.107700
    117 HAB        79.3750   62.5054   44.5424 da         1 CLA      0.155200
    118 H93        85.0498   57.5498   39.6020 dc         1 CLA      0.069500
    119 H92        84.1374   56.1855   40.1556 dc         1 CLA      0.069500
    120 H91        85.2917   57.0130   41.2797 dc         1 CLA      0.069500
    121 H8         86.3370   55.0046   40.5575 dc         1 CLA      0.029300
    122 H72        87.3897   54.8767   38.4277 dc         1 CLA      0.044400
    123 H71        86.4219   56.2237   37.7720 dc         1 CLA      0.044400
    124 H62        84.2988   55.0393   38.2490 dc         1 CLA      0.015600
    125 H61        85.2046   53.7162   38.8271 dc         1 CLA      0.015600
    126 H52        86.1443   53.5578   36.4428 dc         1 CLA      0.033200
    127 H51        85.3042   55.0030   35.9990 dc         1 CLA      0.033200
    128 H43        84.0513   51.5859   35.2329 dc         1 CLA      0.037000
    129 H42        85.1172   51.0424   36.4972 dc         1 CLA      0.037000
    130 H41        83.3853   51.1073   36.8399 dc         1 CLA      0.037000
    131 H3A        81.2531   59.6556   36.7003 dc         1 CLA      0.041100
    132 H2A        80.3739   56.7698   36.6453 dc         1 CLA      0.083100
    133 H2         82.2222   53.8979   37.1448 da         1 CLA      0.180900
    134 H18        87.3087   57.3581   49.1603 dc         1 CLA     -0.003900
    135 H13        89.0536   57.2939   44.1930 dc         1 CLA      0.019700
    136 H12        81.3127   53.6656   34.8582 dc         1 CLA      0.120400
    137 H11        82.9421   53.9366   34.1779 dc         1 CLA      0.120400
    138 C1         69.7694   61.6383   50.7869 Z1         2 LUT      0.509236
    139 C2         68.3135   61.7337   51.4081 Z2         2 LUT     -0.434695
    140 C3         67.5638   63.1298   51.3475 Z3         2 LUT      0.437453
    141 O3         67.1305   63.4414   52.6607 S1         2 LUT     -0.547129
    142 C4         68.2844   64.1597   50.6083 Z4         2 LUT     -0.468603
    143 C5         68.9717   63.6773   49.3653 Z5         2 LUT      0.279246
    144 C6         69.7041   62.4965   49.4161 Z6         2 LUT     -0.305473
    145 C7         70.2188   61.9006   48.1931 Z7         2 LUT      0.069402
    146 C8         71.3034   62.4159   47.5272 Z8         2 LUT     -0.191631
    147 C9         71.7944   62.1191   46.1438 Z9         2 LUT      0.196698
    148 C10        72.9260   62.7888   45.8177 Y1         2 LUT     -0.208611
    149 C11        73.6088   62.7948   44.5004 Y2         2 LUT      0.030784
    150 C12        74.7113   63.5558   44.1832 Y3         2 LUT     -0.220316
    151 C13        75.6139   63.4773   42.9734 Y4         2 LUT      0.215937
    152 C14        76.7657   64.2463   43.0363 Y5         2 LUT     -0.185793
    153 C15        77.8306   64.2465   42.1462 Y6         2 LUT     -0.057835
    154 C16        70.1585   60.1806   50.6638 Y7         2 LUT     -0.405615
    155 C17        70.7321   62.2039   51.8276 Y7         2 LUT     -0.405615
    156 C18        68.5408   64.3316   48.0906 Y9         2 LUT     -0.369639
    157 C19        71.0280   61.1394   45.2826 W1         2 LUT     -0.333362
    158 C20        75.1491   62.7068   41.7491 W2         2 LUT     -0.323439
    159 C21        89.1994   65.1683   36.0713 Z1         2 LUT      0.406104
    160 C22        89.8661   64.4837   34.8658 Z2         2 LUT     -0.404965
    161 C23        90.1216   65.3959   33.6646 Z3         2 LUT      0.391255
    162 O23        90.3971   64.4360   32.6097 S1         2 LUT     -0.528210
    163 C24        88.9471   66.3050   33.3546 W6         2 LUT     -0.258361
    164 C25        87.8713   66.5330   34.1504 Z5         2 LUT      0.133546
    165 C26        87.7820   65.7777   35.4802 W8         2 LUT     -0.147008
    166 C27        86.9770   66.5270   36.5307 Z7         2 LUT      0.023843
    167 C28        86.0818   65.9601   37.3783 Z8         2 LUT     -0.216987
    168 C29        85.2818   66.6496   38.4190 Z9         2 LUT      0.206524
    169 C30        84.3089   65.9064   39.0326 Y1         2 LUT     -0.215556
    170 C31        83.4486   66.1751   40.2196 Y2         2 LUT      0.025142
    171 C32        82.3062   65.4787   40.5321 Y3         2 LUT     -0.212209
    172 C33        81.2803   65.8067   41.5450 Y4         2 LUT      0.240937
    173 C34        80.1662   64.9206   41.5971 Y5         2 LUT     -0.218862
    174 C35        79.0151   64.8956   42.4568 Y6         2 LUT     -0.023547
    175 C36        90.0678   66.2935   36.6763 Y7         2 LUT     -0.393485
    176 C37        89.0475   64.0075   37.1071 Y7         2 LUT     -0.393485
    177 C38        86.7686   67.5536   33.7197 Y9         2 LUT     -0.387526
    178 C39        85.3845   68.1604   38.6958 W1         2 LUT     -0.322618
    179 C40        81.6646   66.7900   42.6632 W2         2 LUT     -0.358472
    180 H403       81.4679   67.8315   42.2989 R7         2 LUT      0.097720
    181 H402       81.1858   66.8152   43.6110 R7         2 LUT      0.097720
    182 H401       82.7578   66.7180   42.8028 R7         2 LUT      0.097720
    183 H393       84.6300   68.5227   39.4016 R4         2 LUT      0.082505
    184 H392       86.3357   68.4031   39.0513 R4         2 LUT      0.082505
    185 H391       85.2957   68.7479   37.7671 R4         2 LUT      0.082505
    186 H383       86.3218   68.0568   34.5840 R1         2 LUT      0.104030
    187 H382       87.2242   68.3449   33.1390 R1         2 LUT      0.104030
    188 H381       85.9353   67.1100   33.1088 R1         2 LUT      0.104030
    189 H373       90.0154   63.7645   37.4742 T4         2 LUT      0.089537
    190 H372       88.4716   64.3400   38.0022 T4         2 LUT      0.089537
    191 H371       88.6166   63.1319   36.6612 T4         2 LUT      0.089537
    192 H363       90.2135   66.9903   35.9250 T4         2 LUT      0.089537
    193 H362       89.5754   66.7759   37.5833 T4         2 LUT      0.089537
    194 H361       91.0745   66.0069   36.9250 T4         2 LUT      0.089537
    195 H222       90.8477   64.1200   35.2175 U2         2 LUT      0.127376
    196 H221       89.0982   63.7635   34.5379 U2         2 LUT      0.127376
    197 H203       74.9075   61.7387   41.9914 R7         2 LUT      0.087068
    198 H202       74.2202   63.0918   41.3384 R7         2 LUT      0.087068
    199 H201       75.7760   62.6773   40.9075 R7         2 LUT      0.087068
    200 H193       70.1408   61.5346   44.9404 R4         2 LUT      0.089716
    201 H192       71.5726   60.8203   44.3326 R4         2 LUT      0.089716
    202 H191       70.6658   60.2295   45.7951 R4         2 LUT      0.089716
    203 H183       67.4527   64.3715   48.0707 R1         2 LUT      0.094572
    204 H182       68.9385   65.3571   47.9586 R1         2 LUT      0.094572
    205 H181       68.9004   63.7650   47.2133 R1         2 LUT      0.094572
    206 H173       70.5585   63.3118   51.9326 T4         2 LUT      0.093752
    207 H172       70.6341   61.7263   52.8090 T4         2 LUT      0.093752
    208 H171       71.7508   62.1325   51.4829 T4         2 LUT      0.093752
    209 H163       71.1484   59.9570   50.3113 T4         2 LUT      0.093752
    210 H162       70.1495   59.7772   51.7093 T4         2 LUT      0.093752
    211 H161       69.5145   59.6504   49.9337 T4         2 LUT      0.093752
    212 HO3        66.3355   63.0433   52.8653 Q1         2 LUT      0.300121
    213 H8         71.9145   63.1884   48.0797 U7         2 LUT      0.080784
    214 H7         69.5723   61.1607   47.6672 U6         2 LUT      0.042190
    215 H42        67.4425   64.8443   50.3466 U5         2 LUT      0.145166
    216 H41        68.9667   64.6145   51.3226 U5         2 LUT      0.145166
    217 H35        79.0333   65.4179   43.3802 T3         2 LUT      0.077919
    218 H34        80.1319   64.2070   40.7564 T2         2 LUT      0.073626
    219 H32        82.0436   64.6831   39.8448 T1         2 LUT      0.092510
    220 H31        83.6612   67.0590   40.7161 U9         2 LUT      0.070048
    221 H30        84.1890   64.8972   38.6917 U8         2 LUT      0.085442
    222 H3         66.7591   62.9039   50.5996 U3         2 LUT     -0.031596
    223 H28        85.8999   64.9277   37.1860 U7         2 LUT      0.084728
    224 H27        87.2649   67.5359   36.7205 U6         2 LUT      0.087291
    225 H26        87.1665   64.8557   35.2349 Q6         2 LUT      0.075325
    226 H24        89.0120   66.9765   32.5206 Q5         2 LUT      0.094482
    227 H23        91.0695   65.9654   33.8756 U3         2 LUT     -0.024869
    228 H22        67.7132   60.9734   50.9077 U2         2 LUT      0.127376
    229 H21        68.4190   61.4859   52.4628 U2         2 LUT      0.127376
    230 H15        77.8111   63.6349   41.3004 T3         2 LUT      0.093200
    231 H14        76.7414   65.0348   43.7477 T2         2 LUT      0.068865
    232 H12        74.9987   64.1969   44.9767 T1         2 LUT      0.095507
    233 H11        73.2754   62.0595   43.8168 U9         2 LUT      0.068930
    234 H10        73.3164   63.5297   46.4886 U8         2 LUT      0.083911
    235 H1         90.4319   64.8693   31.7798 Q1         2 LUT      0.297311
@<TRIPOS>BOND
    1     6     1 1
    2     7     2 1
    3     8     3 1
    4     9     4 1
    5    11     4 1
    6    12     6 1
    7    13     9 1
    8    16     9 1
    9    25     5 1
   10    25    16 1
   11    26    10 1
   12    26    17 1
   13    27    18 1
   14    28    14 1
   15    28    19 1
   16    29    12 1
   17    30    13 1
   18    31    24 1
   19    32     1 1
   20    32    25 1
   21    33    21 1
   22    33    26 1
   23    34    22 1
   24    34    27 1
   25    35    23 1
   26    35    28 1
   27    36    12 1
   28    36    24 1
   29    37    13 1
   30    37    15 1
   31    38    31 1
   32    39    20 1
   33    39    32 1
   34    40     2 1
   35    40    33 1
   36    41     3 1
   37    41    34 1
   38    42     4 1
   39    42    35 1
   40    43    38 1
   41    44     5 1
   42    44    17 1
   43    44    39 1
   44    45    10 1
   45    45    18 1
   46    45    40 1
   47    46    19 1
   48    46    41 1
   49    47    14 1
   50    47    16 1
   51    47    42 1
   52    48    38 1
   53    49    48 1
   54    50    49 1
   55    51    50 1
   56    52    51 1
   57    53    51 1
   58    54    53 1
   59    55    54 1
   60    56    55 1
   61    57    56 1
   62    58    56 1
   63    59    58 1
   64    60    59 1
   65    61    60 1
   66    62    61 1
   67    63    61 1
   68    64    27 1
   69    64    46 1
   70    65     5 1
   71    65    10 1
   72    65    64 1
   73    65    14 1
   74    66    23 1
   75    67    23 1
   76    68    23 1
   77    69    22 1
   78    70    22 1
   79    71    22 1
   80    72    21 1
   81    73    21 1
   82    74    21 1
   83    75    20 1
   84    76    20 1
   85    77    20 1
   86    78    15 1
   87    79    15 1
   88    80    15 1
   89    81     8 1
   90    82     8 1
   91    83     8 1
   92    84     7 1
   93    85     7 1
   94    86     6 1
   95    87     6 1
   96    88     3 1
   97    89     3 1
   98    90     1 1
   99    91     1 1
  100    92    63 1
  101    93    63 1
  102    94    63 1
  103    95    62 1
  104    96    62 1
  105    97    62 1
  106    98    60 1
  107    99    60 1
  108   100    59 1
  109   101    59 1
  110   102    58 1
  111   103    58 1
  112   104    57 1
  113   105    57 1
  114   106    57 1
  115   107    55 1
  116   108    55 1
  117   109    54 1
  118   110    54 1
  119   111    53 1
  120   112    53 1
  121   113    19 1
  122   114    18 1
  123   115    17 1
  124   116     9 1
  125   117     2 1
  126   118    52 1
  127   119    52 1
  128   120    52 1
  129   121    51 1
  130   122    50 1
  131   123    50 1
  132   124    49 1
  133   125    49 1
  134   126    48 1
  135   127    48 1
  136   128    43 1
  137   129    43 1
  138   130    43 1
  139   131    39 1
  140   132    32 1
  141   133    31 1
  142   134    61 1
  143   135    56 1
  144   136    24 1
  145   137    24 1
  146   139   138 1
  147   140   139 1
  148   141   140 1
  149   142   140 1
  150   143   142 1
  151   144   138 1
  152   144   143 1
  153   145   144 1
  154   146   145 1
  155   147   146 1
  156   148   147 1
  157   149   148 1
  158   150   149 1
  159   151   150 1
  160   152   151 1
  161   153   152 1
  162   154   138 1
  163   155   138 1
  164   156   143 1
  165   157   147 1
  166   158   151 1
  167   160   159 1
  168   161   160 1
  169   162   161 1
  170   163   161 1
  171   164   163 1
  172   165   159 1
  173   165   164 1
  174   166   165 1
  175   167   166 1
  176   168   167 1
  177   169   168 1
  178   170   169 1
  179   171   170 1
  180   172   171 1
  181   173   172 1
  182   174   153 1
  183   174   173 1
  184   175   159 1
  185   176   159 1
  186   177   164 1
  187   178   168 1
  188   179   172 1
  189   180   179 1
  190   181   179 1
  191   182   179 1
  192   183   178 1
  193   184   178 1
  194   185   178 1
  195   186   177 1
  196   187   177 1
  197   188   177 1
  198   189   176 1
  199   190   176 1
  200   191   176 1
  201   192   175 1
  202   193   175 1
  203   194   175 1
  204   195   160 1
  205   196   160 1
  206   197   158 1
  207   198   158 1
  208   199   158 1
  209   200   157 1
  210   201   157 1
  211   202   157 1
  212   203   156 1
  213   204   156 1
  214   205   156 1
  215   206   155 1
  216   207   155 1
  217   208   155 1
  218   209   154 1
  219   210   154 1
  220   211   154 1
  221   212   141 1
  222   213   146 1
  223   214   145 1
  224   215   142 1
  225   216   142 1
  226   217   174 1
  227   218   173 1
  228   219   171 1
  229   220   170 1
  230   221   169 1
  231   222   140 1
  232   223   167 1
  233   224   166 1
  234   225   165 1
  235   226   163 1
  236   227   161 1
  237   228   139 1
  238   229   139 1
  239   230   153 1
  240   231   152 1
  241   232   150 1
  242   233   149 1
  243   234   148 1
  244   235   162 1
  245   65    153 1
  246   65    174 1
@<TRIPOS>SUBSTRUCTURE
      1 CLA               1 ****               0 ****  **** 
      2 LUT             138 ****               0 ****  **** 
