@<TRIPOS>MOLECULE
Cpptraj generated mol2 file.
  235   246     2     0     0
SMALL
USER_CHARGES


@<TRIPOS>ATOM
      1 CAA        79.9273   58.3616   34.7226 a2         1 CLA     -0.055900
      2 CAB        79.9830   61.8257   43.9850 c8         1 CLA     -0.148500
      3 CAC        73.2491   57.6785   43.3084 a2         1 CLA     -0.012600
      4 CAD        75.8310   55.7223   35.8528 ck         1 CLA      0.398800
      5 NA         78.7578   58.9194   38.0369 ns         1 CLA     -0.225500
      6 CBA        81.2851   58.3123   33.8987 a2         1 CLA     -0.135000
      7 CBB        81.1831   61.6990   44.6006 c0         1 CLA     -0.395200
      8 CBC        73.6824   56.1471   43.3495 a3         1 CLA     -0.037700
      9 CBD        77.2316   56.2810   35.6100 a1         1 CLA     -0.053900
     10 NB         78.7744   60.2311   40.8009 nm         1 CLA     -0.295700
     11 OBD        75.1835   54.9749   35.1017 o2         1 CLA     -0.494600
     12 CGA        81.7811   56.8661   33.5621 c4         1 CLA      0.827000
     13 CGD        78.2320   55.1152   35.5770 c4         1 CLA      0.655300
     14 ND         76.1156   57.8257   38.6945 nm         1 CLA     -0.291600
     15 CED        78.8824   53.0237   36.5855 a3         1 CLA      0.005400
     16 CHA        77.5428   57.2337   36.7491 cs         1 CLA     -0.123800
     17 CHB        80.5607   60.2903   39.1118 aa         1 CLA     -0.291900
     18 CHC        77.4112   60.3784   42.9019 aa         1 CLA     -0.090400
     19 CHD        74.2050   57.6793   40.2234 aa         1 CLA     -0.052000
     20 CMA        82.1692   58.1876   37.5843 a3         1 CLA     -0.230700
     21 CMB        81.8743   62.1657   41.3226 a3         1 CLA     -0.180800
     22 CMC        75.2057   59.7274   44.8507 a3         1 CLA     -0.134000
     23 CMD        72.9478   55.6128   38.0230 a3         1 CLA     -0.141100
     24 C1         82.5508   54.8174   34.4546 a2         1 CLA      0.023000
     25 C1A        78.6873   58.0393   36.9534 ac         1 CLA     -0.015100
     26 C1B        79.9806   60.6290   40.3672 cr         1 CLA      0.054700
     27 C1C        76.3180   59.5899   42.5024 cn         1 CLA     -0.005600
     28 C1D        74.7986   57.3261   38.9420 ap         1 CLA     -0.047300
     29 O1A        81.6297   56.2884   32.4558 o2         1 CLA     -0.610800
     30 O1D        79.0554   54.9352   34.6839 o2         1 CLA     -0.558200
     31 C2         82.8242   54.1826   35.7829 c8         1 CLA     -0.325100
     32 C2A        79.9456   57.9948   36.1834 a1         1 CLA      0.098600
     33 C2B        80.5787   61.4289   41.4027 cb         1 CLA      0.088500
     34 C2C        75.2690   59.2747   43.4453 cb         1 CLA      0.053700
     35 C2D        74.3152   56.3737   37.9328 cb         1 CLA      0.058900
     36 O2A        82.3430   56.2488   34.5698 o1         1 CLA     -0.437200
     37 O2D        78.1108   54.2818   36.6300 o1         1 CLA     -0.357600
     38 C3         83.9358   53.5045   36.1529 c5         1 CLA      0.031200
     39 C3A        80.9668   58.9104   36.9920 a1         1 CLA      0.166800
     40 C3B        79.7508   61.3574   42.5818 cb         1 CLA      0.035000
     41 C3C        74.3662   58.5303   42.7217 cb         1 CLA     -0.089900
     42 C3D        75.4061   56.3125   37.0489 cb         1 CLA     -0.035900
     43 C4         83.9560   52.0293   36.1255 a3         1 CLA     -0.053300
     44 C4A        80.0658   59.5422   38.0489 ac         1 CLA      0.001800
     45 C4B        78.6173   60.6458   42.1474 cn         1 CLA     -0.020900
     46 C4C        74.8114   58.4824   41.2964 cr         1 CLA     -0.044400
     47 C4D        76.4466   57.1931   37.5157 c6         1 CLA     -0.046000
     48 C5         85.1647   54.2520   36.5309 a2         1 CLA     -0.070400
     49 C6         85.4086   54.3909   38.0412 a2         1 CLA      0.043900
     50 C7         86.6637   55.3008   38.3030 a2         1 CLA     -0.150000
     51 C8         86.7666   55.7063   39.7872 a1         1 CLA      0.064200
     52 C9         85.7301   56.8397   40.0944 a3         1 CLA     -0.259300
     53 C10        88.2066   56.0649   40.1701 a2         1 CLA     -0.071900
     54 C11        88.3972   56.5736   41.6954 a2         1 CLA      0.014500
     55 C12        87.9586   55.6689   42.7363 a2         1 CLA     -0.112100
     56 C13        88.2340   56.2248   44.1682 a1         1 CLA      0.089200
     57 C14        88.1031   54.9977   45.0849 a3         1 CLA     -0.239100
     58 C15        87.1949   57.3689   44.5800 a2         1 CLA     -0.102200
     59 C16        87.0957   57.6573   46.0882 a2         1 CLA      0.023900
     60 C17        85.8644   58.5394   46.3696 a2         1 CLA     -0.105700
     61 C18        85.7478   59.1851   47.7796 a1         1 CLA      0.206800
     62 C19        84.5844   60.2434   47.8632 a3         1 CLA     -0.280100
     63 C20        85.8349   58.2949   49.0714 a3         1 CLA     -0.280100
     64 NC         76.1053   59.0311   41.2759 nx         1 CLA     -0.309200
     65 MG         77.3395   59.1689   39.6557 mg         1 CLA      0.895000
     66 HMD3       72.8851   54.9684   37.1119 dc         1 CLA      0.064300
     67 HMD2       72.9564   54.9281   38.8514 dc         1 CLA      0.064300
     68 HMD1       72.1178   56.2806   37.9884 dc         1 CLA      0.064300
     69 HMC3       75.4543   60.7830   45.0178 dc         1 CLA      0.052100
     70 HMC2       74.1879   59.6066   45.2162 dc         1 CLA      0.052100
     71 HMC1       75.8179   59.1098   45.5021 dc         1 CLA      0.052100
     72 HMB3       81.7182   62.8523   40.5205 dc         1 CLA      0.063600
     73 HMB2       82.1550   62.6672   42.2423 dc         1 CLA      0.063600
     74 HMB1       82.6202   61.4769   41.0689 dc         1 CLA      0.063600
     75 HMA3       82.7015   57.6073   36.8029 dc         1 CLA      0.058300
     76 HMA2       82.9432   58.8213   38.0099 dc         1 CLA      0.058300
     77 HMA1       81.9090   57.6238   38.4995 dc         1 CLA      0.058300
     78 HED3       78.7351   52.5143   37.5335 dc         1 CLA      0.079300
     79 HED2       78.5747   52.4736   35.7517 dc         1 CLA      0.079300
     80 HED1       79.9714   53.1593   36.6120 dc         1 CLA      0.079300
     81 HBC3       73.1341   55.6839   44.1692 dc         1 CLA      0.016300
     82 HBC2       73.3170   55.8145   42.4170 dc         1 CLA      0.016300
     83 HBC1       74.8068   55.9079   43.3713 dc         1 CLA      0.016300
     84 HBB2       81.3629   61.8368   45.6739 da         1 CLA      0.183000
     85 HBB1       82.1293   61.3441   44.0736 da         1 CLA      0.183000
     86 HBA2       81.0450   58.8321   32.9775 dc         1 CLA      0.029400
     87 HBA1       82.0722   58.9216   34.3721 dc         1 CLA      0.029400
     88 HAC2       73.0584   58.0221   44.3512 dc         1 CLA      0.029300
     89 HAC1       72.2905   57.7902   42.8016 dc         1 CLA      0.029300
     90 HAA2       79.3210   57.7100   34.1102 dc         1 CLA      0.028700
     91 HAA1       79.6814   59.4388   34.6255 dc         1 CLA      0.028700
     92 H203       85.5103   58.9104   49.9847 dc         1 CLA      0.065600
     93 H202       85.1700   57.4901   49.2582 dc         1 CLA      0.065600
     94 H201       86.8462   57.8146   49.0674 dc         1 CLA      0.065600
     95 H193       84.7774   60.8622   48.7116 dc         1 CLA      0.065600
     96 H192       84.5971   60.9728   47.0323 dc         1 CLA      0.065600
     97 H191       83.6278   59.8239   48.0200 dc         1 CLA      0.065600
     98 H172       85.9130   59.3489   45.6658 dc         1 CLA      0.027600
     99 H171       85.0272   57.9119   46.1009 dc         1 CLA      0.027600
    100 H162       86.9037   56.7543   46.7270 dc         1 CLA      0.002900
    101 H161       87.9809   58.1311   46.4128 dc         1 CLA      0.002900
    102 H152       87.4757   58.3653   44.2161 dc         1 CLA      0.029100
    103 H151       86.1819   57.0556   44.2502 dc         1 CLA      0.029100
    104 H143       88.4969   55.1879   46.1226 dc         1 CLA      0.063600
    105 H142       87.0856   54.7151   45.1792 dc         1 CLA      0.063600
    106 H141       88.6419   54.1650   44.6756 dc         1 CLA      0.063600
    107 H122       86.9295   55.2229   42.6800 dc         1 CLA      0.032500
    108 H121       88.6695   54.8671   42.5570 dc         1 CLA      0.032500
    109 H112       89.4392   56.6754   41.6737 dc         1 CLA      0.006600
    110 H111       87.8612   57.6309   41.7598 dc         1 CLA      0.006600
    111 H102       88.8250   55.1314   40.0187 dc         1 CLA      0.024100
    112 H101       88.5583   56.8446   39.5443 dc         1 CLA      0.024100
    113 HHD        73.4840   56.9847   40.4737 da         1 CLA      0.174300
    114 HHC        77.4747   60.6927   43.9325 da         1 CLA      0.136800
    115 HHB        81.5775   60.6224   38.9401 da         1 CLA      0.138300
    116 HBD        77.3104   56.7645   34.6353 dc         1 CLA      0.107700
    117 HAB        79.1141   62.0426   44.5970 da         1 CLA      0.155200
    118 H93        84.7111   56.5792   39.7537 dc         1 CLA      0.069500
    119 H92        85.6092   57.0361   41.1982 dc         1 CLA      0.069500
    120 H91        85.9179   57.7878   39.5741 dc         1 CLA      0.069500
    121 H8         86.4498   54.9319   40.4238 dc         1 CLA      0.029300
    122 H72        87.6033   54.8730   37.9855 dc         1 CLA      0.044400
    123 H71        86.5732   56.2096   37.7281 dc         1 CLA      0.044400
    124 H62        84.5182   54.5636   38.5878 dc         1 CLA      0.015600
    125 H61        85.7459   53.3797   38.2707 dc         1 CLA      0.015600
    126 H52        86.0903   53.7871   36.0401 dc         1 CLA      0.033200
    127 H51        85.1731   55.1173   35.9250 dc         1 CLA      0.033200
    128 H43        83.0455   51.5253   35.9494 dc         1 CLA      0.037000
    129 H42        84.7795   51.5610   35.5185 dc         1 CLA      0.037000
    130 H41        84.2835   51.7642   37.2023 dc         1 CLA      0.037000
    131 H3A        81.3595   59.7216   36.3798 dc         1 CLA      0.041100
    132 H2A        80.3080   56.9635   36.2923 dc         1 CLA      0.083100
    133 H2         82.1230   54.4316   36.5774 da         1 CLA      0.180900
    134 H18        86.6489   59.7805   47.8562 dc         1 CLA     -0.003900
    135 H13        89.1961   56.7460   44.1716 dc         1 CLA      0.019700
    136 H12        81.7142   54.3515   33.9757 dc         1 CLA      0.120400
    137 H11        83.4700   54.7303   33.8821 dc         1 CLA      0.120400
    138 C1         68.8614   61.4505   50.4643 Z1         2 LUT      0.509236
    139 C2         68.8636   62.8570   51.1875 Z2         2 LUT     -0.434695
    140 C3         67.5693   63.6805   51.2042 Z3         2 LUT      0.437453
    141 O3         67.9226   64.9499   51.7574 S1         2 LUT     -0.547129
    142 C4         66.9717   63.6975   49.8235 Z4         2 LUT     -0.468603
    143 C5         67.8268   62.9884   48.7121 Z5         2 LUT      0.279246
    144 C6         68.7222   61.9893   49.0569 Z6         2 LUT     -0.305473
    145 C7         69.8212   61.6056   48.0065 Z7         2 LUT      0.069402
    146 C8         70.6968   62.3385   47.2234 Z8         2 LUT     -0.191631
    147 C9         71.4375   61.8547   46.0770 Z9         2 LUT      0.196698
    148 C10        72.4098   62.6964   45.5691 Y1         2 LUT     -0.208611
    149 C11        73.2597   62.5591   44.4024 Y2         2 LUT      0.030784
    150 C12        74.2844   63.4150   43.9984 Y3         2 LUT     -0.220316
    151 C13        75.2744   63.2601   42.8961 Y4         2 LUT      0.215937
    152 C14        76.3886   64.0676   42.8679 Y5         2 LUT     -0.185793
    153 C15        77.5667   64.0782   42.0976 Y6         2 LUT     -0.057835
    154 C16        67.6680   60.7069   50.9988 Y7         2 LUT     -0.405615
    155 C17        70.1759   60.7220   50.7658 Y7         2 LUT     -0.405615
    156 C18        67.9578   63.8393   47.4896 Y9         2 LUT     -0.369639
    157 C19        71.1021   60.4884   45.4192 W1         2 LUT     -0.333362
    158 C20        74.9195   62.3919   41.7078 W2         2 LUT     -0.323439
    159 C21        88.6910   65.7146   35.5487 Z1         2 LUT      0.406104
    160 C22        89.2406   64.9360   34.2531 Z2         2 LUT     -0.404965
    161 C23        89.2885   65.7555   32.9917 Z3         2 LUT      0.391255
    162 O23        89.4558   64.8502   31.9280 S1         2 LUT     -0.528210
    163 C24        88.0326   66.5969   32.8632 W6         2 LUT     -0.258361
    164 C25        87.0460   66.7909   33.7734 Z5         2 LUT      0.133546
    165 C26        87.1676   66.0737   35.2008 W8         2 LUT     -0.147008
    166 C27        86.3327   66.9301   36.2261 Z7         2 LUT      0.023843
    167 C28        85.3182   66.4135   36.9846 Z8         2 LUT     -0.216987
    168 C29        84.5624   66.9837   38.0365 Z9         2 LUT      0.206524
    169 C30        83.5493   66.2644   38.5398 Y1         2 LUT     -0.215556
    170 C31        82.6684   66.4705   39.6778 Y2         2 LUT      0.025142
    171 C32        81.6367   65.6591   40.0209 Y3         2 LUT     -0.212209
    172 C33        80.7508   65.8221   41.0955 Y4         2 LUT      0.240937
    173 C34        79.7283   64.9431   41.2102 Y5         2 LUT     -0.218862
    174 C35        78.6173   64.9650   42.1379 Y6         2 LUT     -0.023547
    175 C36        89.6512   66.9090   35.7627 Y7         2 LUT     -0.393485
    176 C37        88.7391   64.7794   36.8374 Y7         2 LUT     -0.393485
    177 C38        85.7786   67.4890   33.3768 Y9         2 LUT     -0.387526
    178 C39        85.0566   68.2748   38.6938 W1         2 LUT     -0.322618
    179 C40        80.8580   67.0535   42.0169 W2         2 LUT     -0.358472
    180 H403       80.7627   68.0397   41.5461 R7         2 LUT      0.097720
    181 H402       80.1313   66.9830   42.8178 R7         2 LUT      0.097720
    182 H401       81.8051   67.0585   42.5201 R7         2 LUT      0.097720
    183 H393       84.2897   68.9968   38.9725 R4         2 LUT      0.082505
    184 H392       85.6092   68.1189   39.6115 R4         2 LUT      0.082505
    185 H391       85.7092   68.8568   38.0417 R4         2 LUT      0.082505
    186 H383       85.4445   68.3312   34.0009 R1         2 LUT      0.104030
    187 H382       85.8732   67.8670   32.3405 R1         2 LUT      0.104030
    188 H381       84.9494   66.7491   33.4180 R1         2 LUT      0.104030
    189 H373       89.6847   64.3314   37.0455 T4         2 LUT      0.089537
    190 H372       88.4747   65.4792   37.6944 T4         2 LUT      0.089537
    191 H371       87.9588   63.9941   36.7163 T4         2 LUT      0.089537
    192 H363       90.6757   66.4724   36.1137 T4         2 LUT      0.089537
    193 H362       89.8517   67.5308   34.8965 T4         2 LUT      0.089537
    194 H361       89.3177   67.6734   36.5275 T4         2 LUT      0.089537
    195 H222       90.2293   64.5214   34.5284 U2         2 LUT      0.127376
    196 H221       88.5867   64.0886   34.0874 U2         2 LUT      0.127376
    197 H203       75.7181   61.7747   41.1512 R7         2 LUT      0.087068
    198 H202       74.1781   61.6235   41.9711 R7         2 LUT      0.087068
    199 H201       74.4582   63.0269   40.9107 R7         2 LUT      0.087068
    200 H193       70.7944   60.6665   44.3674 R4         2 LUT      0.089716
    201 H192       72.0057   59.9386   45.4561 R4         2 LUT      0.089716
    202 H191       70.2390   59.8885   45.7611 R4         2 LUT      0.089716
    203 H183       68.5367   64.7060   47.7987 R1         2 LUT      0.094572
    204 H182       68.4781   63.3375   46.5808 R1         2 LUT      0.094572
    205 H181       67.0295   64.1343   47.0800 R1         2 LUT      0.094572
    206 H173       71.0043   61.3787   50.7873 T4         2 LUT      0.093752
    207 H172       70.3305   60.2365   51.7368 T4         2 LUT      0.093752
    208 H171       70.4115   59.8741   50.1168 T4         2 LUT      0.093752
    209 H163       67.6439   59.6340   50.6868 T4         2 LUT      0.093752
    210 H162       67.7697   60.7269   52.1033 T4         2 LUT      0.093752
    211 H161       66.7077   61.1555   50.6676 T4         2 LUT      0.093752
    212 HO3        67.3170   65.2072   52.4581 Q1         2 LUT      0.300121
    213 H8         70.7832   63.4136   47.3699 U7         2 LUT      0.080784
    214 H7         69.8242   60.5381   47.8098 U6         2 LUT      0.042190
    215 H42        65.9337   63.3680   49.8336 U5         2 LUT      0.145166
    216 H41        66.8921   64.6919   49.5474 U5         2 LUT      0.145166
    217 H35        78.5596   65.5417   42.9735 T3         2 LUT      0.077919
    218 H34        79.7183   64.1131   40.5071 T2         2 LUT      0.073626
    219 H32        81.3949   64.8577   39.3307 T1         2 LUT      0.092510
    220 H31        82.8096   67.4429   40.1683 U9         2 LUT      0.070048
    221 H30        83.3893   65.3398   37.9781 U8         2 LUT      0.085442
    222 H3         66.9175   63.0856   51.8459 U3         2 LUT     -0.031596
    223 H28        85.0459   65.4227   36.6733 U7         2 LUT      0.084728
    224 H27        86.8085   67.8904   36.4003 U6         2 LUT      0.087291
    225 H26        86.6726   65.0741   34.9248 Q6         2 LUT      0.075325
    226 H24        87.8809   67.1017   31.9073 Q5         2 LUT      0.094482
    227 H23        90.2381   66.3452   32.9772 U3         2 LUT     -0.024869
    228 H22        69.0023   62.6944   52.3382 U2         2 LUT      0.127376
    229 H21        69.7475   63.4663   50.9365 U2         2 LUT      0.127376
    230 H15        77.5046   63.3075   41.2696 T3         2 LUT      0.093200
    231 H14        76.5649   64.4858   43.8387 T2         2 LUT      0.068865
    232 H12        74.4791   64.3022   44.6294 T1         2 LUT      0.095507
    233 H11        73.0815   61.6557   43.8625 U9         2 LUT      0.068930
    234 H10        72.4818   63.6804   46.1741 U8         2 LUT      0.083911
    235 H1         89.8550   65.1558   31.1012 Q1         2 LUT      0.297311
@<TRIPOS>BOND
    1     6     1 1
    2     7     2 1
    3     8     3 1
    4     9     4 1
    5    11     4 1
    6    12     6 1
    7    13     9 1
    8    16     9 1
    9    25     5 1
   10    25    16 1
   11    26    10 1
   12    26    17 1
   13    27    18 1
   14    28    14 1
   15    28    19 1
   16    29    12 1
   17    30    13 1
   18    31    24 1
   19    32     1 1
   20    32    25 1
   21    33    21 1
   22    33    26 1
   23    34    22 1
   24    34    27 1
   25    35    23 1
   26    35    28 1
   27    36    12 1
   28    36    24 1
   29    37    13 1
   30    37    15 1
   31    38    31 1
   32    39    20 1
   33    39    32 1
   34    40     2 1
   35    40    33 1
   36    41     3 1
   37    41    34 1
   38    42     4 1
   39    42    35 1
   40    43    38 1
   41    44     5 1
   42    44    17 1
   43    44    39 1
   44    45    10 1
   45    45    18 1
   46    45    40 1
   47    46    19 1
   48    46    41 1
   49    47    14 1
   50    47    16 1
   51    47    42 1
   52    48    38 1
   53    49    48 1
   54    50    49 1
   55    51    50 1
   56    52    51 1
   57    53    51 1
   58    54    53 1
   59    55    54 1
   60    56    55 1
   61    57    56 1
   62    58    56 1
   63    59    58 1
   64    60    59 1
   65    61    60 1
   66    62    61 1
   67    63    61 1
   68    64    27 1
   69    64    46 1
   70    65     5 1
   71    65    10 1
   72    65    64 1
   73    65    14 1
   74    66    23 1
   75    67    23 1
   76    68    23 1
   77    69    22 1
   78    70    22 1
   79    71    22 1
   80    72    21 1
   81    73    21 1
   82    74    21 1
   83    75    20 1
   84    76    20 1
   85    77    20 1
   86    78    15 1
   87    79    15 1
   88    80    15 1
   89    81     8 1
   90    82     8 1
   91    83     8 1
   92    84     7 1
   93    85     7 1
   94    86     6 1
   95    87     6 1
   96    88     3 1
   97    89     3 1
   98    90     1 1
   99    91     1 1
  100    92    63 1
  101    93    63 1
  102    94    63 1
  103    95    62 1
  104    96    62 1
  105    97    62 1
  106    98    60 1
  107    99    60 1
  108   100    59 1
  109   101    59 1
  110   102    58 1
  111   103    58 1
  112   104    57 1
  113   105    57 1
  114   106    57 1
  115   107    55 1
  116   108    55 1
  117   109    54 1
  118   110    54 1
  119   111    53 1
  120   112    53 1
  121   113    19 1
  122   114    18 1
  123   115    17 1
  124   116     9 1
  125   117     2 1
  126   118    52 1
  127   119    52 1
  128   120    52 1
  129   121    51 1
  130   122    50 1
  131   123    50 1
  132   124    49 1
  133   125    49 1
  134   126    48 1
  135   127    48 1
  136   128    43 1
  137   129    43 1
  138   130    43 1
  139   131    39 1
  140   132    32 1
  141   133    31 1
  142   134    61 1
  143   135    56 1
  144   136    24 1
  145   137    24 1
  146   139   138 1
  147   140   139 1
  148   141   140 1
  149   142   140 1
  150   143   142 1
  151   144   138 1
  152   144   143 1
  153   145   144 1
  154   146   145 1
  155   147   146 1
  156   148   147 1
  157   149   148 1
  158   150   149 1
  159   151   150 1
  160   152   151 1
  161   153   152 1
  162   154   138 1
  163   155   138 1
  164   156   143 1
  165   157   147 1
  166   158   151 1
  167   160   159 1
  168   161   160 1
  169   162   161 1
  170   163   161 1
  171   164   163 1
  172   165   159 1
  173   165   164 1
  174   166   165 1
  175   167   166 1
  176   168   167 1
  177   169   168 1
  178   170   169 1
  179   171   170 1
  180   172   171 1
  181   173   172 1
  182   174   153 1
  183   174   173 1
  184   175   159 1
  185   176   159 1
  186   177   164 1
  187   178   168 1
  188   179   172 1
  189   180   179 1
  190   181   179 1
  191   182   179 1
  192   183   178 1
  193   184   178 1
  194   185   178 1
  195   186   177 1
  196   187   177 1
  197   188   177 1
  198   189   176 1
  199   190   176 1
  200   191   176 1
  201   192   175 1
  202   193   175 1
  203   194   175 1
  204   195   160 1
  205   196   160 1
  206   197   158 1
  207   198   158 1
  208   199   158 1
  209   200   157 1
  210   201   157 1
  211   202   157 1
  212   203   156 1
  213   204   156 1
  214   205   156 1
  215   206   155 1
  216   207   155 1
  217   208   155 1
  218   209   154 1
  219   210   154 1
  220   211   154 1
  221   212   141 1
  222   213   146 1
  223   214   145 1
  224   215   142 1
  225   216   142 1
  226   217   174 1
  227   218   173 1
  228   219   171 1
  229   220   170 1
  230   221   169 1
  231   222   140 1
  232   223   167 1
  233   224   166 1
  234   225   165 1
  235   226   163 1
  236   227   161 1
  237   228   139 1
  238   229   139 1
  239   230   153 1
  240   231   152 1
  241   232   150 1
  242   233   149 1
  243   234   148 1
  244   235   162 1
  245   65    153 1
  246   65    174 1
@<TRIPOS>SUBSTRUCTURE
      1 CLA               1 ****               0 ****  **** 
      2 LUT             138 ****               0 ****  **** 
