@<TRIPOS>MOLECULE
Cpptraj generated mol2 file.
  235   246     2     0     0
SMALL
USER_CHARGES


@<TRIPOS>ATOM
      1 CAA        80.0767   58.1041   33.4436 a2         1 CLA     -0.055900
      2 CAB        80.2895   61.8188   42.2440 c8         1 CLA     -0.148500
      3 CAC        73.2628   57.8306   41.8911 a2         1 CLA     -0.012600
      4 CAD        75.7039   55.5955   34.4899 ck         1 CLA      0.398800
      5 NA         79.0532   58.3540   36.8246 ns         1 CLA     -0.225500
      6 CBA        81.3696   57.8397   32.6069 a2         1 CLA     -0.135000
      7 CBB        80.4127   61.2717   43.4191 c0         1 CLA     -0.395200
      8 CBC        73.7321   56.3928   42.2482 a3         1 CLA     -0.037700
      9 CBD        77.1628   56.0982   34.2340 a1         1 CLA     -0.053900
     10 NB         78.9653   59.8676   39.3452 nm         1 CLA     -0.295700
     11 OBD        75.0373   54.9135   33.7056 o2         1 CLA     -0.494600
     12 CGA        81.8486   56.4943   32.1583 c4         1 CLA      0.827000
     13 CGD        77.9731   54.9045   33.9023 c4         1 CLA      0.655300
     14 ND         76.2690   57.6326   37.3633 nm         1 CLA     -0.291600
     15 CED        78.5816   52.6471   34.5722 a3         1 CLA      0.005400
     16 CHA        77.6241   56.9947   35.4617 cs         1 CLA     -0.123800
     17 CHB        80.9229   59.7031   37.7575 aa         1 CLA     -0.291900
     18 CHC        77.6745   60.1945   41.4153 aa         1 CLA     -0.090400
     19 CHD        74.4128   57.4969   39.0456 aa         1 CLA     -0.052000
     20 CMA        82.2789   57.3549   36.4803 a3         1 CLA     -0.230700
     21 CMB        82.3723   61.3426   39.8629 a3         1 CLA     -0.180800
     22 CMC        75.2814   59.8118   43.6352 a3         1 CLA     -0.134000
     23 CMD        73.1630   55.4617   36.8682 a3         1 CLA     -0.141100
     24 C1         82.8495   54.3732   32.8104 a2         1 CLA      0.023000
     25 C1A        78.8515   57.6368   35.7074 ac         1 CLA     -0.015100
     26 C1B        80.2619   60.1524   38.9039 cr         1 CLA      0.054700
     27 C1C        76.4923   59.5140   41.1668 cn         1 CLA     -0.005600
     28 C1D        75.0195   57.1263   37.7728 ap         1 CLA     -0.047300
     29 O1A        81.8039   56.0752   31.0234 o2         1 CLA     -0.610800
     30 O1D        78.9483   54.9128   33.1382 o2         1 CLA     -0.558200
     31 C2         83.2449   53.5855   33.9705 c8         1 CLA     -0.325100
     32 C2A        80.1111   57.4870   34.9154 a1         1 CLA      0.098600
     33 C2B        80.8920   60.8895   39.9425 cb         1 CLA      0.088500
     34 C2C        75.3831   59.3186   42.1263 cb         1 CLA      0.053700
     35 C2D        74.4830   56.2661   36.7835 cb         1 CLA      0.058900
     36 O2A        82.3590   55.7200   33.1850 o1         1 CLA     -0.437200
     37 O2D        77.6787   53.8093   34.6809 o1         1 CLA     -0.357600
     38 C3         84.4472   52.9844   34.0807 c5         1 CLA      0.031200
     39 C3A        81.1667   58.1833   35.8218 a1         1 CLA      0.166800
     40 C3B        79.9730   61.1071   40.9823 cb         1 CLA      0.035000
     41 C3C        74.4740   58.5647   41.3373 cb         1 CLA     -0.089900
     42 C3D        75.4095   56.1784   35.7945 cb         1 CLA     -0.035900
     43 C4         84.6122   51.4752   33.8422 a3         1 CLA     -0.053300
     44 C4A        80.2755   58.8031   36.8523 ac         1 CLA      0.001800
     45 C4B        78.7936   60.3890   40.6110 cn         1 CLA     -0.020900
     46 C4C        75.0469   58.3172   40.0270 cr         1 CLA     -0.044400
     47 C4D        76.4881   56.9612   36.2748 c6         1 CLA     -0.046000
     48 C5         85.7358   53.7375   34.3787 a2         1 CLA     -0.070400
     49 C6         85.9621   54.3012   35.7730 a2         1 CLA      0.043900
     50 C7         87.2355   55.1143   35.9519 a2         1 CLA     -0.150000
     51 C8         87.3440   55.9133   37.3231 a1         1 CLA      0.064200
     52 C9         86.3483   57.1050   37.3539 a3         1 CLA     -0.259300
     53 C10        88.7542   56.4282   37.6403 a2         1 CLA     -0.071900
     54 C11        88.9630   57.1957   38.9146 a2         1 CLA      0.014500
     55 C12        88.7068   56.4180   40.2243 a2         1 CLA     -0.112100
     56 C13        89.2597   57.0675   41.4862 a1         1 CLA      0.089200
     57 C14        89.7123   56.0109   42.5421 a3         1 CLA     -0.239100
     58 C15        88.3836   58.2366   42.1486 a2         1 CLA     -0.102200
     59 C16        86.9507   57.8075   42.5787 a2         1 CLA      0.023900
     60 C17        86.2131   59.0015   43.1888 a2         1 CLA     -0.105700
     61 C18        84.7330   58.8876   43.5693 a1         1 CLA      0.206800
     62 C19        84.6297   57.8609   44.7694 a3         1 CLA     -0.280100
     63 C20        84.3362   60.2978   43.9938 a3         1 CLA     -0.280100
     64 NC         76.1872   58.9810   39.9015 nx         1 CLA     -0.309200
     65 MG         77.6330   58.8893   38.2697 mg         1 CLA      0.895000
     66 HMD3       73.0517   55.2808   37.9631 dc         1 CLA      0.064300
     67 HMD2       72.3561   56.0355   36.4646 dc         1 CLA      0.064300
     68 HMD1       73.2634   54.4641   36.3629 dc         1 CLA      0.064300
     69 HMC3       75.6665   59.0757   44.3519 dc         1 CLA      0.052100
     70 HMC2       75.8337   60.7396   43.7397 dc         1 CLA      0.052100
     71 HMC1       74.2700   59.9909   43.8871 dc         1 CLA      0.052100
     72 HMB3       82.6043   61.6036   38.8493 dc         1 CLA      0.063600
     73 HMB2       82.5241   62.2001   40.5264 dc         1 CLA      0.063600
     74 HMB1       82.9688   60.4673   40.1833 dc         1 CLA      0.063600
     75 HMA3       82.9889   56.8709   35.7514 dc         1 CLA      0.058300
     76 HMA2       82.9410   57.9653   37.1622 dc         1 CLA      0.058300
     77 HMA1       81.8254   56.5986   37.1642 dc         1 CLA      0.058300
     78 HED3       79.4806   52.8536   35.0764 dc         1 CLA      0.079300
     79 HED2       78.1469   51.7496   35.0531 dc         1 CLA      0.079300
     80 HED1       78.7950   52.2628   33.5483 dc         1 CLA      0.079300
     81 HBC3       74.5998   56.4424   42.8839 dc         1 CLA      0.016300
     82 HBC2       72.9133   55.7956   42.8079 dc         1 CLA      0.016300
     83 HBC1       73.8923   55.7784   41.3125 dc         1 CLA      0.016300
     84 HBB2       80.5050   61.8350   44.4036 da         1 CLA      0.183000
     85 HBB1       80.2342   60.2024   43.4930 da         1 CLA      0.183000
     86 HBA2       81.1853   58.5194   31.7478 dc         1 CLA      0.029400
     87 HBA1       82.1996   58.2766   33.1512 dc         1 CLA      0.029400
     88 HAC2       73.0183   58.2901   42.8967 dc         1 CLA      0.029300
     89 HAC1       72.4360   57.8498   41.1774 dc         1 CLA      0.029300
     90 HAA2       79.2422   57.6470   32.9543 dc         1 CLA      0.028700
     91 HAA1       79.9537   59.2218   33.6028 dc         1 CLA      0.028700
     92 H203       84.6020   60.9781   43.1800 dc         1 CLA      0.065600
     93 H202       83.2914   60.2130   44.0192 dc         1 CLA      0.065600
     94 H201       84.7499   60.4801   44.9775 dc         1 CLA      0.065600
     95 H193       84.9677   58.2821   45.7300 dc         1 CLA      0.065600
     96 H192       83.5030   57.7698   44.9409 dc         1 CLA      0.065600
     97 H191       85.0477   56.9370   44.5901 dc         1 CLA      0.065600
     98 H172       86.8183   59.2608   44.0742 dc         1 CLA      0.027600
     99 H171       86.4051   59.8232   42.4649 dc         1 CLA      0.027600
    100 H162       86.3295   57.4684   41.7863 dc         1 CLA      0.002900
    101 H161       87.1272   57.0661   43.3375 dc         1 CLA      0.002900
    102 H152       88.9584   58.6965   42.9252 dc         1 CLA      0.029100
    103 H151       88.4225   59.1467   41.4955 dc         1 CLA      0.029100
    104 H143       90.6017   55.3248   42.3053 dc         1 CLA      0.063600
    105 H142       89.9661   56.6141   43.4143 dc         1 CLA      0.063600
    106 H141       88.9753   55.2595   42.8405 dc         1 CLA      0.063600
    107 H122       87.6288   56.3553   40.3887 dc         1 CLA      0.032500
    108 H121       89.1639   55.4369   40.1042 dc         1 CLA      0.032500
    109 H112       90.0265   57.3902   38.9580 dc         1 CLA      0.006600
    110 H111       88.3937   58.1046   38.8536 dc         1 CLA      0.006600
    111 H102       89.4320   55.5737   37.6449 dc         1 CLA      0.024100
    112 H101       89.0053   57.0568   36.8293 dc         1 CLA      0.024100
    113 HHD        73.4749   57.0797   39.3131 da         1 CLA      0.174300
    114 HHC        77.8131   60.8299   42.3605 da         1 CLA      0.136800
    115 HHB        81.9565   60.0252   37.6502 da         1 CLA      0.138300
    116 HBD        77.1741   56.7307   33.3404 dc         1 CLA      0.107700
    117 HAB        80.4044   62.9293   42.2741 da         1 CLA      0.155200
    118 H93        86.0233   57.3680   38.3567 dc         1 CLA      0.069500
    119 H92        86.7870   58.0406   36.8725 dc         1 CLA      0.069500
    120 H91        85.4303   56.9298   36.8360 dc         1 CLA      0.069500
    121 H8         87.1346   55.2283   38.0796 dc         1 CLA      0.029300
    122 H72        88.0136   54.3434   35.9323 dc         1 CLA      0.044400
    123 H71        87.4154   55.8541   35.1667 dc         1 CLA      0.044400
    124 H62        85.0480   54.9430   35.8108 dc         1 CLA      0.015600
    125 H61        85.9377   53.5618   36.5409 dc         1 CLA      0.015600
    126 H52        86.6296   53.0646   34.0883 dc         1 CLA      0.033200
    127 H51        85.7425   54.6147   33.6998 dc         1 CLA      0.033200
    128 H43        85.4037   50.9965   34.4087 dc         1 CLA      0.037000
    129 H42        83.7756   50.9214   34.1102 dc         1 CLA      0.037000
    130 H41        84.8605   51.3620   32.7325 dc         1 CLA      0.037000
    131 H3A        81.6341   59.0321   35.3885 dc         1 CLA      0.041100
    132 H2A        80.4757   56.4299   34.9566 dc         1 CLA      0.083100
    133 H2         82.7521   53.8162   34.9534 da         1 CLA      0.180900
    134 H18        84.0988   58.7676   42.6661 dc         1 CLA     -0.003900
    135 H13        90.1590   57.6032   41.1624 dc         1 CLA      0.019700
    136 H12        82.0736   53.8110   32.2398 dc         1 CLA      0.120400
    137 H11        83.7167   54.3863   32.1658 dc         1 CLA      0.120400
    138 C1         70.0834   61.5353   49.3963 Z1         2 LUT      0.509236
    139 C2         68.7770   61.0020   50.0292 Z2         2 LUT     -0.434695
    140 C3         67.7570   62.0950   50.5032 Z3         2 LUT      0.437453
    141 O3         67.9199   62.4643   51.9037 S1         2 LUT     -0.547129
    142 C4         67.7978   63.3512   49.5698 Z4         2 LUT     -0.468603
    143 C5         68.5677   63.2545   48.3139 Z5         2 LUT      0.279246
    144 C6         69.6453   62.4485   48.1945 Z6         2 LUT     -0.305473
    145 C7         70.1436   61.9733   46.8555 Z7         2 LUT      0.069402
    146 C8         71.3154   62.2137   46.2300 Z8         2 LUT     -0.191631
    147 C9         71.7279   61.9506   44.8176 Z9         2 LUT      0.196698
    148 C10        72.8150   62.5698   44.2676 Y1         2 LUT     -0.208611
    149 C11        73.2662   62.5245   42.9157 Y2         2 LUT      0.030784
    150 C12        74.5318   62.9903   42.6540 Y3         2 LUT     -0.220316
    151 C13        75.2761   62.9687   41.4571 Y4         2 LUT      0.215937
    152 C14        76.5181   63.5272   41.4977 Y5         2 LUT     -0.185793
    153 C15        77.4919   63.8205   40.4499 Y6         2 LUT     -0.057835
    154 C16        70.9891   60.2890   49.0737 Y7         2 LUT     -0.405615
    155 C17        70.8717   62.3349   50.4445 Y7         2 LUT     -0.405615
    156 C18        67.9128   64.0126   47.1872 Y9         2 LUT     -0.369639
    157 C19        70.8462   60.9261   44.0555 W1         2 LUT     -0.333362
    158 C20        74.5761   62.5200   40.2218 W2         2 LUT     -0.323439
    159 C21        88.8231   65.5567   34.3978 Z1         2 LUT      0.406104
    160 C22        89.3810   64.8150   33.1688 Z2         2 LUT     -0.404965
    161 C23        89.6228   65.5929   31.9388 Z3         2 LUT      0.391255
    162 O23        89.7948   64.7271   30.8213 S1         2 LUT     -0.528210
    163 C24        88.4309   66.5071   31.6602 W6         2 LUT     -0.258361
    164 C25        87.5119   66.8804   32.5399 Z5         2 LUT      0.133546
    165 C26        87.4788   66.1727   33.8899 W8         2 LUT     -0.147008
    166 C27        86.6553   66.7750   34.9761 Z7         2 LUT      0.023843
    167 C28        85.5925   66.1178   35.4093 Z8         2 LUT     -0.216987
    168 C29        84.9725   66.3642   36.7140 Z9         2 LUT      0.206524
    169 C30        83.7619   65.6814   37.0725 Y1         2 LUT     -0.215556
    170 C31        82.8997   65.8741   38.2702 Y2         2 LUT      0.025142
    171 C32        81.6880   65.2021   38.3639 Y3         2 LUT     -0.212209
    172 C33        80.9656   65.1596   39.5398 Y4         2 LUT      0.240937
    173 C34        79.7037   64.6118   39.5222 Y5         2 LUT     -0.218862
    174 C35        78.7432   64.3575   40.5630 Y6         2 LUT     -0.023547
    175 C36        89.8261   66.6990   34.8279 Y7         2 LUT     -0.393485
    176 C37        88.5654   64.5349   35.4990 Y7         2 LUT     -0.393485
    177 C38        86.3474   67.8038   32.1744 Y9         2 LUT     -0.387526
    178 C39        85.5994   67.3468   37.7634 W1         2 LUT     -0.322618
    179 C40        81.4598   65.9467   40.6818 W2         2 LUT     -0.358472
    180 H403       80.8582   65.7850   41.5563 R7         2 LUT      0.097720
    181 H402       82.4699   65.5918   40.9450 R7         2 LUT      0.097720
    182 H401       81.5625   67.0492   40.5348 R7         2 LUT      0.097720
    183 H393       86.4448   67.9050   37.3636 R4         2 LUT      0.082505
    184 H392       84.8955   68.1437   38.0155 R4         2 LUT      0.082505
    185 H391       85.8881   66.6987   38.6760 R4         2 LUT      0.082505
    186 H383       85.5299   67.1535   32.0288 R1         2 LUT      0.104030
    187 H382       86.1720   68.5626   32.9827 R1         2 LUT      0.104030
    188 H381       86.5708   68.3213   31.2877 R1         2 LUT      0.104030
    189 H373       89.5848   64.2142   35.9124 T4         2 LUT      0.089537
    190 H372       88.0266   64.8829   36.4087 T4         2 LUT      0.089537
    191 H371       88.0671   63.6960   35.1008 T4         2 LUT      0.089537
    192 H363       90.2736   67.4064   34.0658 T4         2 LUT      0.089537
    193 H362       89.3966   67.3249   35.5907 T4         2 LUT      0.089537
    194 H361       90.7239   66.3137   35.2837 T4         2 LUT      0.089537
    195 H222       90.2400   64.3137   33.5254 U2         2 LUT      0.127376
    196 H221       88.5832   64.0088   32.9207 U2         2 LUT      0.127376
    197 H203       73.8129   63.2121   39.9480 R7         2 LUT      0.087068
    198 H202       75.3101   62.4331   39.4037 R7         2 LUT      0.087068
    199 H201       74.1237   61.5294   40.2770 R7         2 LUT      0.087068
    200 H193       69.8574   61.3164   43.7629 R4         2 LUT      0.089716
    201 H192       71.2523   60.4653   43.1466 R4         2 LUT      0.089716
    202 H191       70.6519   60.1579   44.8379 R4         2 LUT      0.089716
    203 H183       66.9722   63.5123   46.9820 R1         2 LUT      0.094572
    204 H182       67.6587   65.0862   47.5052 R1         2 LUT      0.094572
    205 H181       68.4584   64.0657   46.2485 R1         2 LUT      0.094572
    206 H173       71.8607   62.5975   50.1766 T4         2 LUT      0.093752
    207 H172       70.4080   63.3611   50.5104 T4         2 LUT      0.093752
    208 H171       71.0256   61.9600   51.4618 T4         2 LUT      0.093752
    209 H163       71.9853   60.5651   48.8301 T4         2 LUT      0.093752
    210 H162       71.0405   59.6669   49.9161 T4         2 LUT      0.093752
    211 H161       70.5387   59.6662   48.3681 T4         2 LUT      0.093752
    212 HO3        67.8203   61.7700   52.5467 Q1         2 LUT      0.300121
    213 H8         71.8894   62.9979   46.7986 U7         2 LUT      0.080784
    214 H7         69.3311   61.4493   46.3073 U6         2 LUT      0.042190
    215 H42        66.7602   63.7661   49.3646 U5         2 LUT      0.145166
    216 H41        68.1918   64.2120   50.1729 U5         2 LUT      0.145166
    217 H35        79.0777   64.5285   41.6037 T3         2 LUT      0.077919
    218 H34        79.3041   64.2758   38.5300 T2         2 LUT      0.073626
    219 H32        81.3284   64.5637   37.5441 T1         2 LUT      0.092510
    220 H31        83.3294   66.5154   39.0802 U9         2 LUT      0.070048
    221 H30        83.3784   64.9738   36.2896 U8         2 LUT      0.085442
    222 H3         66.7457   61.7291   50.4716 U3         2 LUT     -0.031596
    223 H28        85.0275   65.3189   34.9018 U7         2 LUT      0.084728
    224 H27        87.0452   67.7247   35.2798 U6         2 LUT      0.087291
    225 H26        86.8891   65.3085   33.5515 Q6         2 LUT      0.075325
    226 H24        88.3715   66.8396   30.6254 Q5         2 LUT      0.094482
    227 H23        90.4457   66.1842   32.3281 U3         2 LUT     -0.024869
    228 H22        68.2384   60.4091   49.2858 U2         2 LUT      0.127376
    229 H21        69.0286   60.3978   50.9025 U2         2 LUT      0.127376
    230 H15        77.3811   63.5990   39.4305 T3         2 LUT      0.093200
    231 H14        76.9745   63.8361   42.4116 T2         2 LUT      0.068865
    232 H12        74.9971   63.3511   43.5347 T1         2 LUT      0.095507
    233 H11        72.6137   62.1254   42.1094 U9         2 LUT      0.068930
    234 H10        73.3847   63.2569   44.9263 U8         2 LUT      0.083911
    235 H1         90.2968   65.1349   30.1541 Q1         2 LUT      0.297311
@<TRIPOS>BOND
    1     6     1 1
    2     7     2 1
    3     8     3 1
    4     9     4 1
    5    11     4 1
    6    12     6 1
    7    13     9 1
    8    16     9 1
    9    25     5 1
   10    25    16 1
   11    26    10 1
   12    26    17 1
   13    27    18 1
   14    28    14 1
   15    28    19 1
   16    29    12 1
   17    30    13 1
   18    31    24 1
   19    32     1 1
   20    32    25 1
   21    33    21 1
   22    33    26 1
   23    34    22 1
   24    34    27 1
   25    35    23 1
   26    35    28 1
   27    36    12 1
   28    36    24 1
   29    37    13 1
   30    37    15 1
   31    38    31 1
   32    39    20 1
   33    39    32 1
   34    40     2 1
   35    40    33 1
   36    41     3 1
   37    41    34 1
   38    42     4 1
   39    42    35 1
   40    43    38 1
   41    44     5 1
   42    44    17 1
   43    44    39 1
   44    45    10 1
   45    45    18 1
   46    45    40 1
   47    46    19 1
   48    46    41 1
   49    47    14 1
   50    47    16 1
   51    47    42 1
   52    48    38 1
   53    49    48 1
   54    50    49 1
   55    51    50 1
   56    52    51 1
   57    53    51 1
   58    54    53 1
   59    55    54 1
   60    56    55 1
   61    57    56 1
   62    58    56 1
   63    59    58 1
   64    60    59 1
   65    61    60 1
   66    62    61 1
   67    63    61 1
   68    64    27 1
   69    64    46 1
   70    65     5 1
   71    65    10 1
   72    65    64 1
   73    65    14 1
   74    66    23 1
   75    67    23 1
   76    68    23 1
   77    69    22 1
   78    70    22 1
   79    71    22 1
   80    72    21 1
   81    73    21 1
   82    74    21 1
   83    75    20 1
   84    76    20 1
   85    77    20 1
   86    78    15 1
   87    79    15 1
   88    80    15 1
   89    81     8 1
   90    82     8 1
   91    83     8 1
   92    84     7 1
   93    85     7 1
   94    86     6 1
   95    87     6 1
   96    88     3 1
   97    89     3 1
   98    90     1 1
   99    91     1 1
  100    92    63 1
  101    93    63 1
  102    94    63 1
  103    95    62 1
  104    96    62 1
  105    97    62 1
  106    98    60 1
  107    99    60 1
  108   100    59 1
  109   101    59 1
  110   102    58 1
  111   103    58 1
  112   104    57 1
  113   105    57 1
  114   106    57 1
  115   107    55 1
  116   108    55 1
  117   109    54 1
  118   110    54 1
  119   111    53 1
  120   112    53 1
  121   113    19 1
  122   114    18 1
  123   115    17 1
  124   116     9 1
  125   117     2 1
  126   118    52 1
  127   119    52 1
  128   120    52 1
  129   121    51 1
  130   122    50 1
  131   123    50 1
  132   124    49 1
  133   125    49 1
  134   126    48 1
  135   127    48 1
  136   128    43 1
  137   129    43 1
  138   130    43 1
  139   131    39 1
  140   132    32 1
  141   133    31 1
  142   134    61 1
  143   135    56 1
  144   136    24 1
  145   137    24 1
  146   139   138 1
  147   140   139 1
  148   141   140 1
  149   142   140 1
  150   143   142 1
  151   144   138 1
  152   144   143 1
  153   145   144 1
  154   146   145 1
  155   147   146 1
  156   148   147 1
  157   149   148 1
  158   150   149 1
  159   151   150 1
  160   152   151 1
  161   153   152 1
  162   154   138 1
  163   155   138 1
  164   156   143 1
  165   157   147 1
  166   158   151 1
  167   160   159 1
  168   161   160 1
  169   162   161 1
  170   163   161 1
  171   164   163 1
  172   165   159 1
  173   165   164 1
  174   166   165 1
  175   167   166 1
  176   168   167 1
  177   169   168 1
  178   170   169 1
  179   171   170 1
  180   172   171 1
  181   173   172 1
  182   174   153 1
  183   174   173 1
  184   175   159 1
  185   176   159 1
  186   177   164 1
  187   178   168 1
  188   179   172 1
  189   180   179 1
  190   181   179 1
  191   182   179 1
  192   183   178 1
  193   184   178 1
  194   185   178 1
  195   186   177 1
  196   187   177 1
  197   188   177 1
  198   189   176 1
  199   190   176 1
  200   191   176 1
  201   192   175 1
  202   193   175 1
  203   194   175 1
  204   195   160 1
  205   196   160 1
  206   197   158 1
  207   198   158 1
  208   199   158 1
  209   200   157 1
  210   201   157 1
  211   202   157 1
  212   203   156 1
  213   204   156 1
  214   205   156 1
  215   206   155 1
  216   207   155 1
  217   208   155 1
  218   209   154 1
  219   210   154 1
  220   211   154 1
  221   212   141 1
  222   213   146 1
  223   214   145 1
  224   215   142 1
  225   216   142 1
  226   217   174 1
  227   218   173 1
  228   219   171 1
  229   220   170 1
  230   221   169 1
  231   222   140 1
  232   223   167 1
  233   224   166 1
  234   225   165 1
  235   226   163 1
  236   227   161 1
  237   228   139 1
  238   229   139 1
  239   230   153 1
  240   231   152 1
  241   232   150 1
  242   233   149 1
  243   234   148 1
  244   235   162 1
  245   65    153 1
  246   65    174 1
@<TRIPOS>SUBSTRUCTURE
      1 CLA               1 ****               0 ****  **** 
      2 LUT             138 ****               0 ****  **** 
