@<TRIPOS>MOLECULE
Cpptraj generated mol2 file.
  235   246     2     0     0
SMALL
USER_CHARGES


@<TRIPOS>ATOM
      1 CAA        77.1772   57.9567   34.4134 a2         1 CLA     -0.055900
      2 CAB        77.4682   61.6870   43.5669 c8         1 CLA     -0.148500
      3 CAC        70.2114   58.2934   43.0409 a2         1 CLA     -0.012600
      4 CAD        72.8211   55.5305   35.8159 ck         1 CLA      0.398800
      5 NA         76.2156   58.5557   37.9231 ns         1 CLA     -0.225500
      6 CBA        78.4842   57.7754   33.5677 a2         1 CLA     -0.135000
      7 CBB        78.5282   62.5186   43.8461 c0         1 CLA     -0.395200
      8 CBC        70.3166   56.8314   43.1094 a3         1 CLA     -0.037700
      9 CBD        74.3938   55.8729   35.5677 a1         1 CLA     -0.053900
     10 NB         76.1856   59.9000   40.5400 nm         1 CLA     -0.295700
     11 OBD        72.1093   54.7868   35.1108 o2         1 CLA     -0.494600
     12 CGA        78.9397   56.3371   33.2796 c4         1 CLA      0.827000
     13 CGD        75.3158   54.7109   35.6241 c4         1 CLA      0.655300
     14 ND         73.3002   57.7382   38.5158 nm         1 CLA     -0.291600
     15 CED        75.6203   52.6219   36.8913 a3         1 CLA      0.005400
     16 CHA        74.7894   57.0255   36.5982 cs         1 CLA     -0.123800
     17 CHB        78.1326   59.5649   39.0486 aa         1 CLA     -0.291900
     18 CHC        74.7564   60.4064   42.5996 aa         1 CLA     -0.090400
     19 CHD        71.3480   57.9004   40.0034 aa         1 CLA     -0.052000
     20 CMA        79.4973   57.4985   37.1811 a3         1 CLA     -0.230700
     21 CMB        79.6717   61.0647   41.3591 a3         1 CLA     -0.180800
     22 CMC        72.3239   59.9895   44.5557 a3         1 CLA     -0.134000
     23 CMD        70.0288   56.1073   37.8566 a3         1 CLA     -0.141100
     24 C1         79.7695   54.3255   34.1350 a2         1 CLA      0.023000
     25 C1A        75.9899   57.7699   36.7700 ac         1 CLA     -0.015100
     26 C1B        77.5247   60.0345   40.2424 cr         1 CLA      0.054700
     27 C1C        73.5118   59.7592   42.2977 cn         1 CLA     -0.005600
     28 C1D        72.0076   57.4052   38.8375 ap         1 CLA     -0.047300
     29 O1A        79.0404   55.8851   32.1330 o2         1 CLA     -0.610800
     30 O1D        76.3087   54.4600   34.9726 o2         1 CLA     -0.558200
     31 C2         79.6678   53.4075   35.3331 c8         1 CLA     -0.325100
     32 C2A        77.2386   57.6164   35.9441 a1         1 CLA      0.098600
     33 C2B        78.2122   60.7088   41.3774 cb         1 CLA      0.088500
     34 C2C        72.3433   59.5829   43.1163 cb         1 CLA      0.053700
     35 C2D        71.4311   56.6049   37.8239 cb         1 CLA      0.058900
     36 O2A        79.2069   55.6720   34.4332 o1         1 CLA     -0.437200
     37 O2D        74.9232   53.8679   36.6278 o1         1 CLA     -0.357600
     38 C3         80.5992   52.9038   36.1596 c5         1 CLA      0.031200
     39 C3A        78.2897   58.4021   36.7027 a1         1 CLA      0.166800
     40 C3B        77.2421   61.0327   42.2959 cb         1 CLA      0.035000
     41 C3C        71.3979   58.8906   42.3402 cb         1 CLA     -0.089900
     42 C3D        72.5019   56.3225   36.9770 cb         1 CLA     -0.035900
     43 C4         81.4027   51.6399   35.8516 a3         1 CLA     -0.053300
     44 C4A        77.5097   58.9897   37.9234 ac         1 CLA      0.001800
     45 C4B        75.9731   60.4521   41.7762 cn         1 CLA     -0.020900
     46 C4C        71.9520   58.6183   41.0442 cr         1 CLA     -0.044400
     47 C4D        73.6219   57.0914   37.3783 c6         1 CLA     -0.046000
     48 C5         81.0474   53.6919   37.3396 a2         1 CLA     -0.070400
     49 C6         82.0354   54.8548   37.2134 a2         1 CLA      0.043900
     50 C7         82.4971   55.4238   38.5270 a2         1 CLA     -0.150000
     51 C8         83.4561   56.5747   38.4596 a1         1 CLA      0.064200
     52 C9         84.6409   56.2794   37.5417 a3         1 CLA     -0.259300
     53 C10        83.8724   57.0230   39.8738 a2         1 CLA     -0.071900
     54 C11        82.7019   57.8389   40.6005 a2         1 CLA      0.014500
     55 C12        83.2672   58.4891   41.9079 a2         1 CLA     -0.112100
     56 C13        83.3901   57.6237   43.1785 a1         1 CLA      0.089200
     57 C14        82.0485   56.7671   43.4929 a3         1 CLA     -0.239100
     58 C15        83.8353   58.4416   44.4642 a2         1 CLA     -0.102200
     59 C16        83.0104   59.6038   44.9167 a2         1 CLA      0.023900
     60 C17        83.2070   59.9520   46.3416 a2         1 CLA     -0.105700
     61 C18        82.4365   61.2346   46.9078 a1         1 CLA      0.206800
     62 C19        80.9146   61.1785   46.6142 a3         1 CLA     -0.280100
     63 C20        82.6797   61.4311   48.4613 a3         1 CLA     -0.280100
     64 NC         73.3095   59.0019   41.1039 nx         1 CLA     -0.309200
     65 MG         74.7029   58.9544   39.4400 mg         1 CLA      0.895000
     66 HMD3       69.3561   56.9516   37.8632 dc         1 CLA      0.064300
     67 HMD2       69.7868   55.6479   36.9198 dc         1 CLA      0.064300
     68 HMD1       69.8575   55.4292   38.6807 dc         1 CLA      0.064300
     69 HMC3       72.4560   59.0193   45.0631 dc         1 CLA      0.052100
     70 HMC2       73.2215   60.5357   44.8242 dc         1 CLA      0.052100
     71 HMC1       71.3929   60.4193   44.9224 dc         1 CLA      0.052100
     72 HMB3       80.2101   60.8391   42.2528 dc         1 CLA      0.063600
     73 HMB2       80.2549   60.5112   40.6246 dc         1 CLA      0.063600
     74 HMB1       79.8595   62.0823   41.0943 dc         1 CLA      0.063600
     75 HMA3       79.0489   56.6365   37.6954 dc         1 CLA      0.058300
     76 HMA2       80.0365   57.1025   36.4217 dc         1 CLA      0.058300
     77 HMA1       80.2336   57.9967   37.7849 dc         1 CLA      0.058300
     78 HED3       76.5210   52.8267   37.4341 dc         1 CLA      0.079300
     79 HED2       75.1485   51.9148   37.5424 dc         1 CLA      0.079300
     80 HED1       75.7682   52.0935   35.9288 dc         1 CLA      0.079300
     81 HBC3       69.5777   56.3858   43.7830 dc         1 CLA      0.016300
     82 HBC2       70.1697   56.4676   42.1183 dc         1 CLA      0.016300
     83 HBC1       71.2903   56.4227   43.4626 dc         1 CLA      0.016300
     84 HBB2       78.5829   63.0402   44.8063 da         1 CLA      0.183000
     85 HBB1       79.3567   62.8169   43.1791 da         1 CLA      0.183000
     86 HBA2       78.4372   58.2176   32.5793 dc         1 CLA      0.029400
     87 HBA1       79.2985   58.2789   34.0984 dc         1 CLA      0.029400
     88 HAC2       70.0450   58.6484   44.0846 dc         1 CLA      0.029300
     89 HAC1       69.3134   58.6723   42.6208 dc         1 CLA      0.029300
     90 HAA2       76.3506   57.4022   34.0133 dc         1 CLA      0.028700
     91 HAA1       76.8901   58.9957   34.2060 dc         1 CLA      0.028700
     92 H203       82.5720   62.5074   48.7910 dc         1 CLA      0.065600
     93 H202       82.0082   60.8276   49.1142 dc         1 CLA      0.065600
     94 H201       83.6472   61.0486   48.6690 dc         1 CLA      0.065600
     95 H193       80.5108   60.3562   47.1535 dc         1 CLA      0.065600
     96 H192       80.4331   62.1617   46.8417 dc         1 CLA      0.065600
     97 H191       80.7028   60.9296   45.5702 dc         1 CLA      0.065600
     98 H172       82.8279   59.1425   46.9662 dc         1 CLA      0.027600
     99 H171       84.2749   60.1540   46.5246 dc         1 CLA      0.027600
    100 H162       83.2880   60.3425   44.1942 dc         1 CLA      0.002900
    101 H161       81.9195   59.4802   44.7994 dc         1 CLA      0.002900
    102 H152       83.8873   57.7528   45.2480 dc         1 CLA      0.029100
    103 H151       84.8754   58.7808   44.4818 dc         1 CLA      0.029100
    104 H143       81.1852   57.4548   43.6747 dc         1 CLA      0.063600
    105 H142       81.8771   56.1609   42.5740 dc         1 CLA      0.063600
    106 H141       82.1894   56.1650   44.3464 dc         1 CLA      0.063600
    107 H122       84.3563   58.8042   41.7743 dc         1 CLA      0.032500
    108 H121       82.6009   59.3217   42.0996 dc         1 CLA      0.032500
    109 H112       82.3260   58.5850   39.9149 dc         1 CLA      0.006600
    110 H111       81.8895   57.1225   40.6849 dc         1 CLA      0.006600
    111 H102       84.2476   56.2233   40.5104 dc         1 CLA      0.024100
    112 H101       84.7525   57.7203   39.8248 dc         1 CLA      0.024100
    113 HHD        70.3297   57.5152   40.2471 da         1 CLA      0.174300
    114 HHC        74.7994   60.8754   43.5635 da         1 CLA      0.136800
    115 HHB        79.1570   59.7853   38.8858 da         1 CLA      0.138300
    116 HBD        74.5995   56.3074   34.5871 dc         1 CLA      0.107700
    117 HAB        76.7229   61.5981   44.3087 da         1 CLA      0.155200
    118 H93        85.1389   55.3524   37.8214 dc         1 CLA      0.069500
    119 H92        84.3684   56.4057   36.5527 dc         1 CLA      0.069500
    120 H91        85.5056   56.9941   37.6979 dc         1 CLA      0.069500
    121 H8         82.9724   57.4946   38.1003 dc         1 CLA      0.029300
    122 H72        81.6258   55.6751   39.1478 dc         1 CLA      0.044400
    123 H71        83.0007   54.5584   39.0833 dc         1 CLA      0.044400
    124 H62        82.9147   54.3428   36.7820 dc         1 CLA      0.015600
    125 H61        81.7117   55.7048   36.5431 dc         1 CLA      0.015600
    126 H52        80.0923   54.1128   37.6537 dc         1 CLA      0.033200
    127 H51        81.3062   53.0302   38.1657 dc         1 CLA      0.033200
    128 H43        81.4143   51.3643   34.7902 dc         1 CLA      0.037000
    129 H42        82.4001   51.9795   36.1127 dc         1 CLA      0.037000
    130 H41        81.0918   50.8134   36.5462 dc         1 CLA      0.037000
    131 H3A        78.6351   59.2005   36.1035 dc         1 CLA      0.041100
    132 H2A        77.5410   56.5676   36.1013 dc         1 CLA      0.083100
    133 H2         78.6285   53.0395   35.4122 da         1 CLA      0.180900
    134 H18        82.8869   62.0420   46.3660 dc         1 CLA     -0.003900
    135 H13        84.2192   56.9125   42.9654 dc         1 CLA      0.019700
    136 H12        79.1709   53.7550   33.3904 dc         1 CLA      0.120400
    137 H11        80.7595   54.3738   33.7388 dc         1 CLA      0.120400
    138 C1         67.2419   62.0412   50.2117 Z1         2 LUT      0.509236
    139 C2         65.8078   62.0921   50.8276 Z2         2 LUT     -0.434695
    140 C3         65.1574   63.4058   51.1006 Z3         2 LUT      0.437453
    141 O3         65.2383   63.8916   52.4793 S1         2 LUT     -0.547129
    142 C4         65.6224   64.4618   50.1664 Z4         2 LUT     -0.468603
    143 C5         66.2189   63.9519   48.9124 Z5         2 LUT      0.279246
    144 C6         67.0803   62.8714   48.8726 Z6         2 LUT     -0.305473
    145 C7         67.4429   62.1613   47.6525 Z7         2 LUT      0.069402
    146 C8         68.2253   62.7136   46.7139 Z8         2 LUT     -0.191631
    147 C9         68.5713   62.1208   45.3919 Z9         2 LUT      0.196698
    148 C10        69.5990   62.7186   44.6107 Y1         2 LUT     -0.208611
    149 C11        70.1917   62.4210   43.3481 Y2         2 LUT      0.030784
    150 C12        71.2928   63.1563   42.8617 Y3         2 LUT     -0.220316
    151 C13        72.1431   62.8323   41.7673 Y4         2 LUT      0.215937
    152 C14        73.3277   63.4511   41.7934 Y5         2 LUT     -0.185793
    153 C15        74.4314   63.3825   40.8548 Y6         2 LUT     -0.057835
    154 C16        67.5546   60.5349   50.1247 Y7         2 LUT     -0.405615
    155 C17        68.1424   62.7083   51.2047 Y7         2 LUT     -0.405615
    156 C18        65.5453   64.6178   47.7481 Y9         2 LUT     -0.369639
    157 C19        68.0829   60.7788   44.9156 W1         2 LUT     -0.333362
    158 C20        71.6233   62.0649   40.5478 W2         2 LUT     -0.323439
    159 C21        86.0592   64.5115   35.7676 Z1         2 LUT      0.406104
    160 C22        86.7672   63.7365   34.5970 Z2         2 LUT     -0.404965
    161 C23        87.1312   64.5975   33.3905 Z3         2 LUT      0.391255
    162 O23        87.3497   63.6189   32.3259 S1         2 LUT     -0.528210
    163 C24        85.9825   65.4348   32.9562 W6         2 LUT     -0.258361
    164 C25        84.9441   65.8263   33.7108 Z5         2 LUT      0.133546
    165 C26        84.8193   65.2468   35.1740 W8         2 LUT     -0.147008
    166 C27        84.0975   66.1726   36.1732 Z7         2 LUT      0.023843
    167 C28        82.9222   65.8316   36.7855 Z8         2 LUT     -0.216987
    168 C29        82.2028   66.1219   38.0733 Z9         2 LUT      0.206524
    169 C30        81.0980   65.3661   38.2773 Y1         2 LUT     -0.215556
    170 C31        80.1757   65.5403   39.3917 Y2         2 LUT      0.025142
    171 C32        78.9621   64.8940   39.5007 Y3         2 LUT     -0.212209
    172 C33        77.9073   64.9253   40.5342 Y4         2 LUT      0.240937
    173 C34        76.7716   64.2474   40.2698 Y5         2 LUT     -0.218862
    174 C35        75.5789   64.1037   41.0601 Y6         2 LUT     -0.023547
    175 C36        87.1137   65.5584   36.2730 Y7         2 LUT     -0.393485
    176 C37        85.8606   63.4169   36.8090 Y7         2 LUT     -0.393485
    177 C38        83.7949   66.6091   33.2049 Y9         2 LUT     -0.387526
    178 C39        82.8503   67.2230   38.8831 W1         2 LUT     -0.322618
    179 C40        78.2397   65.3847   41.9827 W2         2 LUT     -0.358472
    180 H403       79.2754   65.1912   42.2489 R7         2 LUT      0.097720
    181 H402       78.0611   66.4585   42.0316 R7         2 LUT      0.097720
    182 H401       77.5899   64.8963   42.7005 R7         2 LUT      0.097720
    183 H393       82.9063   68.1420   38.2260 R4         2 LUT      0.082505
    184 H392       82.1605   67.5585   39.6278 R4         2 LUT      0.082505
    185 H391       83.8583   66.9607   39.2529 R4         2 LUT      0.082505
    186 H383       82.8216   66.0677   33.4565 R1         2 LUT      0.104030
    187 H382       83.6885   67.6042   33.7532 R1         2 LUT      0.104030
    188 H381       83.8605   66.8495   32.1411 R1         2 LUT      0.104030
    189 H373       85.3915   63.7522   37.7259 T4         2 LUT      0.089537
    190 H372       85.2900   62.5404   36.4190 T4         2 LUT      0.089537
    191 H371       86.8821   63.0178   37.0884 T4         2 LUT      0.089537
    192 H363       87.0732   66.3731   35.6415 T4         2 LUT      0.089537
    193 H362       87.0168   65.9030   37.2832 T4         2 LUT      0.089537
    194 H361       88.1939   65.3016   36.2210 T4         2 LUT      0.089537
    195 H222       87.6686   63.2278   35.0321 U2         2 LUT      0.127376
    196 H221       86.0771   62.9845   34.1095 U2         2 LUT      0.127376
    197 H203       72.3016   62.0618   39.7541 R7         2 LUT      0.087068
    198 H202       71.4967   61.1140   40.9119 R7         2 LUT      0.087068
    199 H201       70.6401   62.5535   40.1711 R7         2 LUT      0.087068
    200 H193       67.9105   60.8699   43.7682 R4         2 LUT      0.089716
    201 H192       68.8043   60.0316   45.2037 R4         2 LUT      0.089716
    202 H191       67.1258   60.5999   45.3479 R4         2 LUT      0.089716
    203 H183       65.7695   64.0558   46.8289 R1         2 LUT      0.094572
    204 H182       64.4734   64.7512   47.8340 R1         2 LUT      0.094572
    205 H181       65.9153   65.6565   47.5981 R1         2 LUT      0.094572
    206 H173       68.1131   62.2795   52.1665 T4         2 LUT      0.093752
    207 H172       69.2129   62.7793   50.9439 T4         2 LUT      0.093752
    208 H171       67.8495   63.7117   51.4015 T4         2 LUT      0.093752
    209 H163       66.7697   59.9198   49.6071 T4         2 LUT      0.093752
    210 H162       68.5346   60.4531   49.5439 T4         2 LUT      0.093752
    211 H161       67.6626   60.0409   51.1212 T4         2 LUT      0.093752
    212 HO3        64.5679   63.4183   53.0292 Q1         2 LUT      0.300121
    213 H8         68.7375   63.6734   46.9621 U7         2 LUT      0.080784
    214 H7         67.0618   61.2012   47.5980 U6         2 LUT      0.042190
    215 H42        64.7467   65.1174   50.0597 U5         2 LUT      0.145166
    216 H41        66.2321   65.1376   50.7835 U5         2 LUT      0.145166
    217 H35        75.4863   64.7143   41.9805 T3         2 LUT      0.077919
    218 H34        76.7296   63.8449   39.2778 T2         2 LUT      0.073626
    219 H32        78.8224   64.1154   38.7222 T1         2 LUT      0.092510
    220 H31        80.3584   66.2927   40.0756 U9         2 LUT      0.070048
    221 H30        80.8048   64.6028   37.5610 U8         2 LUT      0.085442
    222 H3         64.1194   63.1026   50.8298 U3         2 LUT     -0.031596
    223 H28        82.3240   65.2351   36.0443 U7         2 LUT      0.084728
    224 H27        84.8014   66.8435   36.6825 U6         2 LUT      0.087291
    225 H26        84.1513   64.4152   35.0360 Q6         2 LUT      0.075325
    226 H24        85.9297   65.7524   31.9284 Q5         2 LUT      0.094482
    227 H23        88.0164   65.2275   33.6696 U3         2 LUT     -0.024869
    228 H22        65.1858   61.5580   50.1590 U2         2 LUT      0.127376
    229 H21        65.8201   61.3880   51.7200 U2         2 LUT      0.127376
    230 H15        74.4724   62.8196   39.8951 T3         2 LUT      0.093200
    231 H14        73.4473   64.3047   42.5491 T2         2 LUT      0.068865
    232 H12        71.5897   63.9520   43.5914 T1         2 LUT      0.095507
    233 H11        69.9693   61.5073   42.7883 U9         2 LUT      0.068930
    234 H10        69.9925   63.6177   45.0694 U8         2 LUT      0.083911
    235 H1         87.8942   64.0364   31.6539 Q1         2 LUT      0.297311
@<TRIPOS>BOND
    1     6     1 1
    2     7     2 1
    3     8     3 1
    4     9     4 1
    5    11     4 1
    6    12     6 1
    7    13     9 1
    8    16     9 1
    9    25     5 1
   10    25    16 1
   11    26    10 1
   12    26    17 1
   13    27    18 1
   14    28    14 1
   15    28    19 1
   16    29    12 1
   17    30    13 1
   18    31    24 1
   19    32     1 1
   20    32    25 1
   21    33    21 1
   22    33    26 1
   23    34    22 1
   24    34    27 1
   25    35    23 1
   26    35    28 1
   27    36    12 1
   28    36    24 1
   29    37    13 1
   30    37    15 1
   31    38    31 1
   32    39    20 1
   33    39    32 1
   34    40     2 1
   35    40    33 1
   36    41     3 1
   37    41    34 1
   38    42     4 1
   39    42    35 1
   40    43    38 1
   41    44     5 1
   42    44    17 1
   43    44    39 1
   44    45    10 1
   45    45    18 1
   46    45    40 1
   47    46    19 1
   48    46    41 1
   49    47    14 1
   50    47    16 1
   51    47    42 1
   52    48    38 1
   53    49    48 1
   54    50    49 1
   55    51    50 1
   56    52    51 1
   57    53    51 1
   58    54    53 1
   59    55    54 1
   60    56    55 1
   61    57    56 1
   62    58    56 1
   63    59    58 1
   64    60    59 1
   65    61    60 1
   66    62    61 1
   67    63    61 1
   68    64    27 1
   69    64    46 1
   70    65     5 1
   71    65    10 1
   72    65    64 1
   73    65    14 1
   74    66    23 1
   75    67    23 1
   76    68    23 1
   77    69    22 1
   78    70    22 1
   79    71    22 1
   80    72    21 1
   81    73    21 1
   82    74    21 1
   83    75    20 1
   84    76    20 1
   85    77    20 1
   86    78    15 1
   87    79    15 1
   88    80    15 1
   89    81     8 1
   90    82     8 1
   91    83     8 1
   92    84     7 1
   93    85     7 1
   94    86     6 1
   95    87     6 1
   96    88     3 1
   97    89     3 1
   98    90     1 1
   99    91     1 1
  100    92    63 1
  101    93    63 1
  102    94    63 1
  103    95    62 1
  104    96    62 1
  105    97    62 1
  106    98    60 1
  107    99    60 1
  108   100    59 1
  109   101    59 1
  110   102    58 1
  111   103    58 1
  112   104    57 1
  113   105    57 1
  114   106    57 1
  115   107    55 1
  116   108    55 1
  117   109    54 1
  118   110    54 1
  119   111    53 1
  120   112    53 1
  121   113    19 1
  122   114    18 1
  123   115    17 1
  124   116     9 1
  125   117     2 1
  126   118    52 1
  127   119    52 1
  128   120    52 1
  129   121    51 1
  130   122    50 1
  131   123    50 1
  132   124    49 1
  133   125    49 1
  134   126    48 1
  135   127    48 1
  136   128    43 1
  137   129    43 1
  138   130    43 1
  139   131    39 1
  140   132    32 1
  141   133    31 1
  142   134    61 1
  143   135    56 1
  144   136    24 1
  145   137    24 1
  146   139   138 1
  147   140   139 1
  148   141   140 1
  149   142   140 1
  150   143   142 1
  151   144   138 1
  152   144   143 1
  153   145   144 1
  154   146   145 1
  155   147   146 1
  156   148   147 1
  157   149   148 1
  158   150   149 1
  159   151   150 1
  160   152   151 1
  161   153   152 1
  162   154   138 1
  163   155   138 1
  164   156   143 1
  165   157   147 1
  166   158   151 1
  167   160   159 1
  168   161   160 1
  169   162   161 1
  170   163   161 1
  171   164   163 1
  172   165   159 1
  173   165   164 1
  174   166   165 1
  175   167   166 1
  176   168   167 1
  177   169   168 1
  178   170   169 1
  179   171   170 1
  180   172   171 1
  181   173   172 1
  182   174   153 1
  183   174   173 1
  184   175   159 1
  185   176   159 1
  186   177   164 1
  187   178   168 1
  188   179   172 1
  189   180   179 1
  190   181   179 1
  191   182   179 1
  192   183   178 1
  193   184   178 1
  194   185   178 1
  195   186   177 1
  196   187   177 1
  197   188   177 1
  198   189   176 1
  199   190   176 1
  200   191   176 1
  201   192   175 1
  202   193   175 1
  203   194   175 1
  204   195   160 1
  205   196   160 1
  206   197   158 1
  207   198   158 1
  208   199   158 1
  209   200   157 1
  210   201   157 1
  211   202   157 1
  212   203   156 1
  213   204   156 1
  214   205   156 1
  215   206   155 1
  216   207   155 1
  217   208   155 1
  218   209   154 1
  219   210   154 1
  220   211   154 1
  221   212   141 1
  222   213   146 1
  223   214   145 1
  224   215   142 1
  225   216   142 1
  226   217   174 1
  227   218   173 1
  228   219   171 1
  229   220   170 1
  230   221   169 1
  231   222   140 1
  232   223   167 1
  233   224   166 1
  234   225   165 1
  235   226   163 1
  236   227   161 1
  237   228   139 1
  238   229   139 1
  239   230   153 1
  240   231   152 1
  241   232   150 1
  242   233   149 1
  243   234   148 1
  244   235   162 1
  245   65    153 1
  246   65    174 1
@<TRIPOS>SUBSTRUCTURE
      1 CLA               1 ****               0 ****  **** 
      2 LUT             138 ****               0 ****  **** 
