@<TRIPOS>MOLECULE
Cpptraj generated mol2 file.
  235   246     2     0     0
SMALL
USER_CHARGES


@<TRIPOS>ATOM
      1 CAA        79.6003   59.0378   33.5209 a2         1 CLA     -0.055900
      2 CAB        79.2548   62.1373   43.0970 c8         1 CLA     -0.148500
      3 CAC        72.4740   57.9071   42.0073 a2         1 CLA     -0.012600
      4 CAD        75.0730   57.0104   34.2501 ck         1 CLA      0.398800
      5 NA         78.3166   59.4019   36.9964 ns         1 CLA     -0.225500
      6 CBA        80.9145   58.7266   32.7855 a2         1 CLA     -0.135000
      7 CBB        80.4358   61.9306   43.7492 c0         1 CLA     -0.395200
      8 CBC        72.4979   56.3245   42.1180 a3         1 CLA     -0.037700
      9 CBD        76.6146   57.3926   34.0978 a1         1 CLA     -0.053900
     10 NB         78.2414   60.4873   39.8442 nm         1 CLA     -0.295700
     11 OBD        74.4941   56.5132   33.3510 o2         1 CLA     -0.494600
     12 CGA        81.1706   57.2985   32.5273 c4         1 CLA      0.827000
     13 CGD        77.4218   56.1420   33.7506 c4         1 CLA      0.655300
     14 ND         75.5671   58.4217   37.4333 nm         1 CLA     -0.291600
     15 CED        78.0033   53.8386   34.3706 a3         1 CLA      0.005400
     16 CHA        76.9965   58.0561   35.4319 cs         1 CLA     -0.123800
     17 CHB        80.1024   60.5943   38.2426 aa         1 CLA     -0.291900
     18 CHC        76.8275   60.5826   41.8396 aa         1 CLA     -0.090400
     19 CHD        73.6617   58.0359   39.0406 aa         1 CLA     -0.052000
     20 CMA        81.9050   59.2874   36.2558 a3         1 CLA     -0.230700
     21 CMB        81.3485   62.3089   40.5803 a3         1 CLA     -0.180800
     22 CMC        74.4729   59.5420   43.8098 a3         1 CLA     -0.134000
     23 CMD        72.2259   56.8540   36.3210 a3         1 CLA     -0.141100
     24 C1         81.9856   55.2407   33.4740 a2         1 CLA      0.023000
     25 C1A        78.2002   58.7512   35.8307 ac         1 CLA     -0.015100
     26 C1B        79.5322   60.8180   39.5312 cr         1 CLA      0.054700
     27 C1C        75.7179   59.7638   41.4774 cn         1 CLA     -0.005600
     28 C1D        74.1995   57.9820   37.7164 ap         1 CLA     -0.047300
     29 O1A        81.2171   56.8721   31.3961 o2         1 CLA     -0.610800
     30 O1D        78.1015   56.0051   32.7293 o2         1 CLA     -0.558200
     31 C2         82.4933   54.6689   34.8018 c8         1 CLA     -0.325100
     32 C2A        79.5705   58.7829   35.1111 a1         1 CLA      0.098600
     33 C2B        80.0963   61.6213   40.6614 cb         1 CLA      0.088500
     34 C2C        74.6438   59.3420   42.3455 cb         1 CLA      0.053700
     35 C2D        73.6118   57.3642   36.5135 cb         1 CLA      0.058900
     36 O2A        81.4878   56.5746   33.6974 o1         1 CLA     -0.437200
     37 O2D        77.3447   55.1422   34.7160 o1         1 CLA     -0.357600
     38 C3         83.5965   53.8903   34.9473 c5         1 CLA      0.031200
     39 C3A        80.4579   59.7727   35.9566 a1         1 CLA      0.166800
     40 C3B        79.1469   61.5244   41.7048 cb         1 CLA      0.035000
     41 C3C        73.7417   58.5516   41.5149 cb         1 CLA     -0.089900
     42 C3D        74.7058   57.3181   35.5861 cb         1 CLA     -0.035900
     43 C4         83.5767   52.4115   34.7728 a3         1 CLA     -0.053300
     44 C4A        79.5501   59.9531   37.1456 ac         1 CLA      0.001800
     45 C4B        78.0082   60.8946   41.1288 cn         1 CLA     -0.020900
     46 C4C        74.2684   58.5622   40.1599 cr         1 CLA     -0.044400
     47 C4D        75.8267   57.9908   36.1830 c6         1 CLA     -0.046000
     48 C5         84.9970   54.5410   35.1096 a2         1 CLA     -0.070400
     49 C6         85.1123   55.8883   35.7577 a2         1 CLA      0.043900
     50 C7         85.0703   55.8099   37.2657 a2         1 CLA     -0.150000
     51 C8         85.2976   57.1866   38.0258 a1         1 CLA      0.064200
     52 C9         86.7048   57.7953   37.6806 a3         1 CLA     -0.259300
     53 C10        85.1738   56.9808   39.5682 a2         1 CLA     -0.071900
     54 C11        84.7451   58.2317   40.3537 a2         1 CLA      0.014500
     55 C12        84.4545   57.8152   41.7623 a2         1 CLA     -0.112100
     56 C13        83.9061   58.9523   42.5743 a1         1 CLA      0.089200
     57 C14        85.1068   59.8242   43.2143 a3         1 CLA     -0.239100
     58 C15        83.0058   58.3899   43.6905 a2         1 CLA     -0.102200
     59 C16        83.5465   57.3212   44.5779 a2         1 CLA      0.023900
     60 C17        82.5827   57.3143   45.8097 a2         1 CLA     -0.105700
     61 C18        82.6649   56.0905   46.7536 a1         1 CLA      0.206800
     62 C19        84.0156   56.0415   47.5304 a3         1 CLA     -0.280100
     63 C20        81.6287   56.0187   47.9229 a3         1 CLA     -0.280100
     64 NC         75.5106   59.2527   40.2324 nx         1 CLA     -0.309200
     65 MG         76.9359   59.5300   38.5642 mg         1 CLA      0.895000
     66 HMD3       71.6724   57.7456   36.0140 dc         1 CLA      0.064300
     67 HMD2       72.2084   56.0554   35.4952 dc         1 CLA      0.064300
     68 HMD1       71.8169   56.4618   37.3051 dc         1 CLA      0.064300
     69 HMC3       75.2684   60.1756   44.1068 dc         1 CLA      0.052100
     70 HMC2       73.5312   60.0247   43.9436 dc         1 CLA      0.052100
     71 HMC1       74.4850   58.5756   44.2746 dc         1 CLA      0.052100
     72 HMB3       82.0821   61.5269   40.7630 dc         1 CLA      0.063600
     73 HMB2       81.4227   62.7756   39.6279 dc         1 CLA      0.063600
     74 HMB1       81.4323   63.1250   41.2653 dc         1 CLA      0.063600
     75 HMA3       81.9939   58.4812   36.9780 dc         1 CLA      0.058300
     76 HMA2       82.3503   58.9802   35.3456 dc         1 CLA      0.058300
     77 HMA1       82.3409   60.1634   36.7168 dc         1 CLA      0.058300
     78 HED3       78.9624   53.8523   34.9246 dc         1 CLA      0.079300
     79 HED2       77.3880   53.0108   34.7854 dc         1 CLA      0.079300
     80 HED1       78.4022   53.6846   33.3512 dc         1 CLA      0.079300
     81 HBC3       71.5300   55.9273   42.4759 dc         1 CLA      0.016300
     82 HBC2       72.7885   55.8676   41.1213 dc         1 CLA      0.016300
     83 HBC1       73.2722   55.9443   42.8008 dc         1 CLA      0.016300
     84 HBB2       80.5178   62.1605   44.8085 da         1 CLA      0.183000
     85 HBB1       81.2522   61.2646   43.4042 da         1 CLA      0.183000
     86 HBA2       80.6614   58.9488   31.7667 dc         1 CLA      0.029400
     87 HBA1       81.7848   59.1580   33.2533 dc         1 CLA      0.029400
     88 HAC2       72.2567   58.1976   43.0359 dc         1 CLA      0.029300
     89 HAC1       71.6183   58.2179   41.3950 dc         1 CLA      0.029300
     90 HAA2       78.9682   58.2198   33.1871 dc         1 CLA      0.028700
     91 HAA1       79.2890   60.0157   33.2511 dc         1 CLA      0.028700
     92 H203       81.7240   55.0523   48.4421 dc         1 CLA      0.065600
     93 H202       81.7056   56.8443   48.6839 dc         1 CLA      0.065600
     94 H201       80.6380   56.1935   47.4777 dc         1 CLA      0.065600
     95 H193       84.7654   55.8120   46.7371 dc         1 CLA      0.065600
     96 H192       84.3392   56.9487   48.0018 dc         1 CLA      0.065600
     97 H191       83.9420   55.1899   48.1863 dc         1 CLA      0.065600
     98 H172       82.7440   58.1619   46.4657 dc         1 CLA      0.027600
     99 H171       81.5737   57.3300   45.4376 dc         1 CLA      0.027600
    100 H162       83.5523   56.3346   44.0804 dc         1 CLA      0.002900
    101 H161       84.6089   57.4738   44.7903 dc         1 CLA      0.002900
    102 H152       82.5754   59.2415   44.2520 dc         1 CLA      0.029100
    103 H151       82.1501   58.0015   43.1566 dc         1 CLA      0.029100
    104 H143       85.7730   59.2089   43.8944 dc         1 CLA      0.063600
    105 H142       85.7708   60.1833   42.4934 dc         1 CLA      0.063600
    106 H141       84.6976   60.5905   43.9063 dc         1 CLA      0.063600
    107 H122       83.5399   57.1834   41.7269 dc         1 CLA      0.032500
    108 H121       85.2632   57.3384   42.2576 dc         1 CLA      0.032500
    109 H112       85.6977   58.8889   40.3458 dc         1 CLA      0.006600
    110 H111       83.9092   58.7872   39.9202 dc         1 CLA      0.006600
    111 H102       84.3691   56.2872   39.7104 dc         1 CLA      0.024100
    112 H101       86.1738   56.7012   39.9476 dc         1 CLA      0.024100
    113 HHD        72.7061   57.6356   39.2500 da         1 CLA      0.174300
    114 HHC        76.7602   60.9800   42.8611 da         1 CLA      0.136800
    115 HHB        81.1311   60.9012   38.1987 da         1 CLA      0.138300
    116 HBD        76.7860   58.0480   33.2599 dc         1 CLA      0.107700
    117 HAB        78.4422   62.6810   43.4924 da         1 CLA      0.155200
    118 H93        86.7278   57.9726   36.5812 dc         1 CLA      0.069500
    119 H92        86.8717   58.8109   37.9894 dc         1 CLA      0.069500
    120 H91        87.5566   57.1955   38.0710 dc         1 CLA      0.069500
    121 H8         84.6422   57.9239   37.7297 dc         1 CLA      0.029300
    122 H72        84.0791   55.4131   37.4978 dc         1 CLA      0.044400
    123 H71        85.8510   55.0442   37.6026 dc         1 CLA      0.044400
    124 H62        86.0268   56.3779   35.4206 dc         1 CLA      0.015600
    125 H61        84.3298   56.6099   35.3890 dc         1 CLA      0.015600
    126 H52        85.7168   53.9221   35.4633 dc         1 CLA      0.033200
    127 H51        85.2815   54.7890   34.0671 dc         1 CLA      0.033200
    128 H43        84.3055   51.9693   35.3594 dc         1 CLA      0.037000
    129 H42        82.5210   52.0936   34.9373 dc         1 CLA      0.037000
    130 H41        83.9156   52.1283   33.7706 dc         1 CLA      0.037000
    131 H3A        80.5340   60.6348   35.3492 dc         1 CLA      0.041100
    132 H2A        79.9911   57.8517   35.2742 dc         1 CLA      0.083100
    133 H2         82.0160   55.0716   35.7165 da         1 CLA      0.180900
    134 H18        82.5262   55.1439   46.1526 dc         1 CLA     -0.003900
    135 H13        83.3170   59.7042   41.9511 dc         1 CLA      0.019700
    136 H12        81.1888   54.6620   33.0040 dc         1 CLA      0.120400
    137 H11        82.8091   55.2881   32.7791 dc         1 CLA      0.120400
    138 C1         69.2167   60.8203   50.0135 Z1         2 LUT      0.509236
    139 C2         68.6006   61.5156   51.2481 Z2         2 LUT     -0.434695
    140 C3         67.1722   61.8380   50.9930 Z3         2 LUT      0.437453
    141 O3         66.6701   62.4030   52.1786 S1         2 LUT     -0.547129
    142 C4         67.1494   62.9060   50.0061 Z4         2 LUT     -0.468603
    143 C5         67.8465   62.5403   48.7443 Z5         2 LUT      0.279246
    144 C6         68.7442   61.5523   48.6665 Z6         2 LUT     -0.305473
    145 C7         69.5587   61.2062   47.4577 Z7         2 LUT      0.069402
    146 C8         70.1604   61.9298   46.5250 Z8         2 LUT     -0.191631
    147 C9         70.7398   61.5428   45.2204 Z9         2 LUT      0.196698
    148 C10        71.6340   62.3694   44.6019 Y1         2 LUT     -0.208611
    149 C11        72.2933   62.2492   43.3020 Y2         2 LUT      0.030784
    150 C12        73.4204   62.9963   43.2035 Y3         2 LUT     -0.220316
    151 C13        74.4169   62.9027   42.0886 Y4         2 LUT      0.215937
    152 C14        75.5873   63.6812   42.2518 Y5         2 LUT     -0.185793
    153 C15        76.6488   63.8912   41.3210 Y6         2 LUT     -0.057835
    154 C16        68.6834   59.3052   50.0165 Y7         2 LUT     -0.405615
    155 C17        70.7546   60.7637   50.1581 Y7         2 LUT     -0.405615
    156 C18        67.5852   63.6046   47.6976 Y9         2 LUT     -0.369639
    157 C19        70.1822   60.2325   44.6869 W1         2 LUT     -0.333362
    158 C20        73.9632   62.4028   40.7917 W2         2 LUT     -0.323439
    159 C21        87.4336   66.1289   34.4174 Z1         2 LUT      0.406104
    160 C22        88.1394   65.8236   33.1678 Z2         2 LUT     -0.404965
    161 C23        88.1690   66.9456   32.1381 Z3         2 LUT      0.391255
    162 O23        88.8802   66.4695   30.9537 S1         2 LUT     -0.528210
    163 C24        86.7360   67.5314   32.0177 W6         2 LUT     -0.258361
    164 C25        85.7184   67.4583   32.9141 Z5         2 LUT      0.133546
    165 C26        85.9207   66.5122   34.1604 W8         2 LUT     -0.147008
    166 C27        85.3625   66.9893   35.4975 Z7         2 LUT      0.023843
    167 C28        84.2571   66.5012   36.1285 Z8         2 LUT     -0.216987
    168 C29        83.8220   66.8393   37.5206 Z9         2 LUT      0.206524
    169 C30        82.8492   66.0740   38.0672 Y1         2 LUT     -0.215556
    170 C31        82.1688   66.2452   39.3467 Y2         2 LUT      0.025142
    171 C32        80.9447   65.6873   39.6156 Y3         2 LUT     -0.212209
    172 C33        79.9943   65.5368   40.7204 Y4         2 LUT      0.240937
    173 C34        78.8630   64.7080   40.7319 Y5         2 LUT     -0.218862
    174 C35        77.7869   64.6344   41.6065 Y6         2 LUT     -0.023547
    175 C36        88.4139   67.1335   35.1443 Y7         2 LUT     -0.393485
    176 C37        87.5846   64.8154   35.3074 Y7         2 LUT     -0.393485
    177 C38        84.3844   68.1415   32.6765 Y9         2 LUT     -0.387526
    178 C39        84.5070   67.9123   38.3761 W1         2 LUT     -0.322618
    179 C40        80.3930   66.2034   42.0573 W2         2 LUT     -0.358472
    180 H403       81.3857   65.8059   42.3776 R7         2 LUT      0.097720
    181 H402       80.4595   67.2811   41.9998 R7         2 LUT      0.097720
    182 H401       79.7225   65.9295   42.8845 R7         2 LUT      0.097720
    183 H393       85.2593   67.4744   38.9777 R4         2 LUT      0.082505
    184 H392       84.9895   68.5765   37.6542 R4         2 LUT      0.082505
    185 H391       83.8394   68.3825   39.0141 R4         2 LUT      0.082505
    186 H383       84.3553   68.5803   31.6632 R1         2 LUT      0.104030
    187 H382       83.6340   67.4113   32.7263 R1         2 LUT      0.104030
    188 H381       84.2980   68.9758   33.4122 R1         2 LUT      0.104030
    189 H373       87.1165   63.9040   34.8570 T4         2 LUT      0.089537
    190 H372       88.6945   64.6156   35.4383 T4         2 LUT      0.089537
    191 H371       87.1275   64.9704   36.2657 T4         2 LUT      0.089537
    192 H363       88.1878   67.1844   36.2381 T4         2 LUT      0.089537
    193 H362       89.4834   66.9812   34.9541 T4         2 LUT      0.089537
    194 H361       88.0961   68.1447   34.7111 T4         2 LUT      0.089537
    195 H222       89.1454   65.4156   33.2296 U2         2 LUT      0.127376
    196 H221       87.4176   65.0853   32.7563 U2         2 LUT      0.127376
    197 H203       73.0958   63.0900   40.4477 R7         2 LUT      0.087068
    198 H202       74.7092   62.5408   39.9682 R7         2 LUT      0.087068
    199 H201       73.6568   61.3304   40.7349 R7         2 LUT      0.087068
    200 H193       70.7693   59.3138   45.1197 R4         2 LUT      0.089716
    201 H192       69.1393   60.0317   44.9550 R4         2 LUT      0.089716
    202 H191       70.2147   60.1834   43.6324 R4         2 LUT      0.089716
    203 H183       67.5331   63.0854   46.7486 R1         2 LUT      0.094572
    204 H182       66.6327   64.0878   47.8765 R1         2 LUT      0.094572
    205 H181       68.4252   64.3611   47.6883 R1         2 LUT      0.094572
    206 H173       70.9428   60.1679   51.0628 T4         2 LUT      0.093752
    207 H172       71.2696   60.3021   49.3343 T4         2 LUT      0.093752
    208 H171       71.2332   61.7355   50.3610 T4         2 LUT      0.093752
    209 H163       69.0992   58.7633   50.8692 T4         2 LUT      0.093752
    210 H162       67.5909   59.2674   50.1558 T4         2 LUT      0.093752
    211 H161       69.0077   58.6540   49.1844 T4         2 LUT      0.093752
    212 HO3        65.9198   61.9012   52.5063 Q1         2 LUT      0.300121
    213 H8         70.0588   62.9576   46.7016 U7         2 LUT      0.080784
    214 H7         69.8569   60.1763   47.3380 U6         2 LUT      0.042190
    215 H42        66.0639   63.1246   49.8324 U5         2 LUT      0.145166
    216 H41        67.5516   63.8301   50.4782 U5         2 LUT      0.145166
    217 H35        77.8916   65.1198   42.5826 T3         2 LUT      0.077919
    218 H34        78.6859   64.0799   39.8478 T2         2 LUT      0.073626
    219 H32        80.6557   65.0274   38.8370 T1         2 LUT      0.092510
    220 H31        82.5912   66.9224   40.0663 U9         2 LUT      0.070048
    221 H30        82.4471   65.2895   37.4260 U8         2 LUT      0.085442
    222 H3         66.6492   61.1072   50.3819 U3         2 LUT     -0.031596
    223 H28        83.5958   66.0702   35.4040 U7         2 LUT      0.084728
    224 H27        86.0297   67.5834   36.1669 U6         2 LUT      0.087291
    225 H26        85.3333   65.6136   34.0356 Q6         2 LUT      0.075325
    226 H24        86.5748   68.1221   31.1281 Q5         2 LUT      0.094482
    227 H23        88.7889   67.7047   32.6314 U3         2 LUT     -0.024869
    228 H22        68.7158   60.9380   52.1343 U2         2 LUT      0.127376
    229 H21        69.1902   62.4119   51.5887 U2         2 LUT      0.127376
    230 H15        76.6036   63.4675   40.3772 T3         2 LUT      0.093200
    231 H14        75.6273   64.1191   43.2223 T2         2 LUT      0.068865
    232 H12        73.6018   63.7993   43.9332 T1         2 LUT      0.095507
    233 H11        72.1048   61.4535   42.6288 U9         2 LUT      0.068930
    234 H10        71.8749   63.1423   45.3012 U8         2 LUT      0.083911
    235 H1         88.2695   66.0520   30.3740 Q1         2 LUT      0.297311
@<TRIPOS>BOND
    1     6     1 1
    2     7     2 1
    3     8     3 1
    4     9     4 1
    5    11     4 1
    6    12     6 1
    7    13     9 1
    8    16     9 1
    9    25     5 1
   10    25    16 1
   11    26    10 1
   12    26    17 1
   13    27    18 1
   14    28    14 1
   15    28    19 1
   16    29    12 1
   17    30    13 1
   18    31    24 1
   19    32     1 1
   20    32    25 1
   21    33    21 1
   22    33    26 1
   23    34    22 1
   24    34    27 1
   25    35    23 1
   26    35    28 1
   27    36    12 1
   28    36    24 1
   29    37    13 1
   30    37    15 1
   31    38    31 1
   32    39    20 1
   33    39    32 1
   34    40     2 1
   35    40    33 1
   36    41     3 1
   37    41    34 1
   38    42     4 1
   39    42    35 1
   40    43    38 1
   41    44     5 1
   42    44    17 1
   43    44    39 1
   44    45    10 1
   45    45    18 1
   46    45    40 1
   47    46    19 1
   48    46    41 1
   49    47    14 1
   50    47    16 1
   51    47    42 1
   52    48    38 1
   53    49    48 1
   54    50    49 1
   55    51    50 1
   56    52    51 1
   57    53    51 1
   58    54    53 1
   59    55    54 1
   60    56    55 1
   61    57    56 1
   62    58    56 1
   63    59    58 1
   64    60    59 1
   65    61    60 1
   66    62    61 1
   67    63    61 1
   68    64    27 1
   69    64    46 1
   70    65     5 1
   71    65    10 1
   72    65    64 1
   73    65    14 1
   74    66    23 1
   75    67    23 1
   76    68    23 1
   77    69    22 1
   78    70    22 1
   79    71    22 1
   80    72    21 1
   81    73    21 1
   82    74    21 1
   83    75    20 1
   84    76    20 1
   85    77    20 1
   86    78    15 1
   87    79    15 1
   88    80    15 1
   89    81     8 1
   90    82     8 1
   91    83     8 1
   92    84     7 1
   93    85     7 1
   94    86     6 1
   95    87     6 1
   96    88     3 1
   97    89     3 1
   98    90     1 1
   99    91     1 1
  100    92    63 1
  101    93    63 1
  102    94    63 1
  103    95    62 1
  104    96    62 1
  105    97    62 1
  106    98    60 1
  107    99    60 1
  108   100    59 1
  109   101    59 1
  110   102    58 1
  111   103    58 1
  112   104    57 1
  113   105    57 1
  114   106    57 1
  115   107    55 1
  116   108    55 1
  117   109    54 1
  118   110    54 1
  119   111    53 1
  120   112    53 1
  121   113    19 1
  122   114    18 1
  123   115    17 1
  124   116     9 1
  125   117     2 1
  126   118    52 1
  127   119    52 1
  128   120    52 1
  129   121    51 1
  130   122    50 1
  131   123    50 1
  132   124    49 1
  133   125    49 1
  134   126    48 1
  135   127    48 1
  136   128    43 1
  137   129    43 1
  138   130    43 1
  139   131    39 1
  140   132    32 1
  141   133    31 1
  142   134    61 1
  143   135    56 1
  144   136    24 1
  145   137    24 1
  146   139   138 1
  147   140   139 1
  148   141   140 1
  149   142   140 1
  150   143   142 1
  151   144   138 1
  152   144   143 1
  153   145   144 1
  154   146   145 1
  155   147   146 1
  156   148   147 1
  157   149   148 1
  158   150   149 1
  159   151   150 1
  160   152   151 1
  161   153   152 1
  162   154   138 1
  163   155   138 1
  164   156   143 1
  165   157   147 1
  166   158   151 1
  167   160   159 1
  168   161   160 1
  169   162   161 1
  170   163   161 1
  171   164   163 1
  172   165   159 1
  173   165   164 1
  174   166   165 1
  175   167   166 1
  176   168   167 1
  177   169   168 1
  178   170   169 1
  179   171   170 1
  180   172   171 1
  181   173   172 1
  182   174   153 1
  183   174   173 1
  184   175   159 1
  185   176   159 1
  186   177   164 1
  187   178   168 1
  188   179   172 1
  189   180   179 1
  190   181   179 1
  191   182   179 1
  192   183   178 1
  193   184   178 1
  194   185   178 1
  195   186   177 1
  196   187   177 1
  197   188   177 1
  198   189   176 1
  199   190   176 1
  200   191   176 1
  201   192   175 1
  202   193   175 1
  203   194   175 1
  204   195   160 1
  205   196   160 1
  206   197   158 1
  207   198   158 1
  208   199   158 1
  209   200   157 1
  210   201   157 1
  211   202   157 1
  212   203   156 1
  213   204   156 1
  214   205   156 1
  215   206   155 1
  216   207   155 1
  217   208   155 1
  218   209   154 1
  219   210   154 1
  220   211   154 1
  221   212   141 1
  222   213   146 1
  223   214   145 1
  224   215   142 1
  225   216   142 1
  226   217   174 1
  227   218   173 1
  228   219   171 1
  229   220   170 1
  230   221   169 1
  231   222   140 1
  232   223   167 1
  233   224   166 1
  234   225   165 1
  235   226   163 1
  236   227   161 1
  237   228   139 1
  238   229   139 1
  239   230   153 1
  240   231   152 1
  241   232   150 1
  242   233   149 1
  243   234   148 1
  244   235   162 1
  245   65    153 1
  246   65    174 1
@<TRIPOS>SUBSTRUCTURE
      1 CLA               1 ****               0 ****  **** 
      2 LUT             138 ****               0 ****  **** 
