@<TRIPOS>MOLECULE
Cpptraj generated mol2 file.
  235   246     2     0     0
SMALL
USER_CHARGES


@<TRIPOS>ATOM
      1 CAA        77.7867   58.7418   33.6964 a2         1 CLA     -0.055900
      2 CAB        77.8688   61.8325   42.9109 c8         1 CLA     -0.148500
      3 CAC        71.0115   57.6015   42.1472 a2         1 CLA     -0.012600
      4 CAD        73.8862   55.8789   34.5979 ck         1 CLA      0.398800
      5 NA         76.8805   58.6645   37.0630 ns         1 CLA     -0.225500
      6 CBA        79.0624   58.5622   32.7483 a2         1 CLA     -0.135000
      7 CBB        78.9402   61.8590   43.7138 c0         1 CLA     -0.395200
      8 CBC        71.1236   56.1132   42.3101 a3         1 CLA     -0.037700
      9 CBD        75.2885   56.4298   34.3499 a1         1 CLA     -0.053900
     10 NB         76.7065   59.9995   39.7581 nm         1 CLA     -0.295700
     11 OBD        73.4145   55.1225   33.7840 o2         1 CLA     -0.494600
     12 CGA        79.4687   57.1095   32.3140 c4         1 CLA      0.827000
     13 CGD        76.2748   55.3293   34.1094 c4         1 CLA      0.655300
     14 ND         74.0821   57.8317   37.5204 nm         1 CLA     -0.291600
     15 CED        77.1346   53.1801   34.8902 a3         1 CLA      0.005400
     16 CHA        75.6201   57.2192   35.5770 cs         1 CLA     -0.123800
     17 CHB        78.6049   59.9657   38.2498 aa         1 CLA     -0.291900
     18 CHC        75.4012   60.1782   41.8233 aa         1 CLA     -0.090400
     19 CHD        72.3734   57.2214   39.2403 aa         1 CLA     -0.052000
     20 CMA        80.2315   58.2652   36.3702 a3         1 CLA     -0.230700
     21 CMB        80.0032   61.5876   40.4159 a3         1 CLA     -0.180800
     22 CMC        73.0879   59.6047   43.7766 a3         1 CLA     -0.134000
     23 CMD        71.1006   55.7007   36.7660 a3         1 CLA     -0.141100
     24 C1         80.3592   55.0056   33.1421 a2         1 CLA      0.023000
     25 C1A        76.7596   57.9371   35.9363 ac         1 CLA     -0.015100
     26 C1B        78.0076   60.2049   39.4772 cr         1 CLA      0.054700
     27 C1C        74.2185   59.4341   41.4244 cn         1 CLA     -0.005600
     28 C1D        72.8940   57.2354   37.9088 ap         1 CLA     -0.047300
     29 O1A        79.3104   56.6456   31.2107 o2         1 CLA     -0.610800
     30 O1D        77.1704   55.4294   33.2568 o2         1 CLA     -0.558200
     31 C2         81.2033   54.6381   34.3401 c8         1 CLA     -0.325100
     32 C2A        78.0294   58.1160   35.0610 a1         1 CLA      0.098600
     33 C2B        78.6096   61.0326   40.5001 cb         1 CLA      0.088500
     34 C2C        73.1333   59.0920   42.3402 cb         1 CLA      0.053700
     35 C2D        72.4358   56.4315   36.8405 cb         1 CLA      0.058900
     36 O2A        80.2129   56.4909   33.2856 o1         1 CLA     -0.437200
     37 O2D        76.1589   54.2998   35.0100 o1         1 CLA     -0.357600
     38 C3         82.0272   53.6112   34.4526 c5         1 CLA      0.031200
     39 C3A        78.9800   59.0005   35.9331 a1         1 CLA      0.166800
     40 C3B        77.7418   61.1009   41.5722 cb         1 CLA      0.035000
     41 C3C        72.2973   58.2686   41.6022 cb         1 CLA     -0.089900
     42 C3D        73.4045   56.4398   35.8781 cb         1 CLA     -0.035900
     43 C4         81.6701   52.2800   35.0392 a3         1 CLA     -0.053300
     44 C4A        78.0907   59.2541   37.1601 ac         1 CLA      0.001800
     45 C4B        76.5353   60.4861   41.0596 cn         1 CLA     -0.020900
     46 C4C        72.9089   58.0747   40.3282 cr         1 CLA     -0.044400
     47 C4D        74.4307   57.2407   36.3049 c6         1 CLA     -0.046000
     48 C5         83.5121   53.7970   34.0821 a2         1 CLA     -0.070400
     49 C6         84.1109   55.0563   34.5415 a2         1 CLA      0.043900
     50 C7         84.0842   55.2718   36.0635 a2         1 CLA     -0.150000
     51 C8         84.4222   56.7872   36.5855 a1         1 CLA      0.064200
     52 C9         85.6210   57.3996   35.9276 a3         1 CLA     -0.259300
     53 C10        84.5005   56.7650   38.1257 a2         1 CLA     -0.071900
     54 C11        83.2170   56.3162   38.8204 a2         1 CLA      0.014500
     55 C12        83.4119   56.4281   40.3198 a2         1 CLA     -0.112100
     56 C13        82.3112   56.0533   41.3302 a1         1 CLA      0.089200
     57 C14        80.9239   56.6284   41.0250 a3         1 CLA     -0.239100
     58 C15        82.7815   56.3281   42.8124 a2         1 CLA     -0.102200
     59 C16        83.0561   57.7380   43.2167 a2         1 CLA      0.023900
     60 C17        83.3565   57.8569   44.7289 a2         1 CLA     -0.105700
     61 C18        83.5597   59.3698   45.1288 a1         1 CLA      0.206800
     62 C19        82.2206   60.2176   45.0851 a3         1 CLA     -0.280100
     63 C20        84.0895   59.3990   46.5910 a3         1 CLA     -0.280100
     64 NC         74.0655   58.8431   40.2446 nx         1 CLA     -0.309200
     65 MG         75.3903   59.0180   38.5618 mg         1 CLA      0.895000
     66 HMD3       70.9297   55.1024   35.8532 dc         1 CLA      0.064300
     67 HMD2       70.8570   55.2250   37.7427 dc         1 CLA      0.064300
     68 HMD1       70.3455   56.5102   36.7522 dc         1 CLA      0.064300
     69 HMC3       74.0473   59.8215   44.0737 dc         1 CLA      0.052100
     70 HMC2       72.5491   60.5157   44.0483 dc         1 CLA      0.052100
     71 HMC1       72.5966   58.9355   44.4690 dc         1 CLA      0.052100
     72 HMB3       80.0804   62.2278   41.2745 dc         1 CLA      0.063600
     73 HMB2       80.7105   60.7855   40.4908 dc         1 CLA      0.063600
     74 HMB1       80.0169   62.2780   39.5645 dc         1 CLA      0.063600
     75 HMA3       80.9287   58.9024   36.9587 dc         1 CLA      0.058300
     76 HMA2       79.9550   57.3398   36.8557 dc         1 CLA      0.058300
     77 HMA1       80.6693   57.9573   35.4529 dc         1 CLA      0.058300
     78 HED3       78.1220   53.5003   35.0885 dc         1 CLA      0.079300
     79 HED2       76.7409   52.3153   35.4221 dc         1 CLA      0.079300
     80 HED1       77.1027   52.8764   33.7827 dc         1 CLA      0.079300
     81 HBC3       71.9421   55.7755   42.9138 dc         1 CLA      0.016300
     82 HBC2       70.2100   55.7673   42.8584 dc         1 CLA      0.016300
     83 HBC1       71.1870   55.5789   41.3881 dc         1 CLA      0.016300
     84 HBB2       78.9142   62.2901   44.7122 da         1 CLA      0.183000
     85 HBB1       79.8088   61.2710   43.5058 da         1 CLA      0.183000
     86 HBA2       78.8240   59.0408   31.7672 dc         1 CLA      0.029400
     87 HBA1       79.8994   59.0425   33.2042 dc         1 CLA      0.029400
     88 HAC2       70.7413   57.9308   43.1302 dc         1 CLA      0.029300
     89 HAC1       70.2009   57.6928   41.4646 dc         1 CLA      0.029300
     90 HAA2       76.9931   58.1809   33.2092 dc         1 CLA      0.028700
     91 HAA1       77.4721   59.7487   33.7640 dc         1 CLA      0.028700
     92 H203       83.8747   60.3502   47.1049 dc         1 CLA      0.065600
     93 H202       83.8306   58.5356   47.1306 dc         1 CLA      0.065600
     94 H201       85.1511   59.3330   46.5681 dc         1 CLA      0.065600
     95 H193       81.5408   59.8104   45.8141 dc         1 CLA      0.065600
     96 H192       82.4647   61.2963   45.2410 dc         1 CLA      0.065600
     97 H191       81.7029   60.1143   44.1087 dc         1 CLA      0.065600
     98 H172       82.4891   57.4999   45.2645 dc         1 CLA      0.027600
     99 H171       84.1961   57.2333   45.0200 dc         1 CLA      0.027600
    100 H162       83.8789   58.0826   42.6504 dc         1 CLA      0.002900
    101 H161       82.1571   58.3547   42.9956 dc         1 CLA      0.002900
    102 H152       82.2262   55.7839   43.5920 dc         1 CLA      0.029100
    103 H151       83.7885   55.9052   42.8563 dc         1 CLA      0.029100
    104 H143       80.0583   55.8747   41.1946 dc         1 CLA      0.063600
    105 H142       80.7054   57.5194   41.6479 dc         1 CLA      0.063600
    106 H141       80.9311   57.0310   40.0221 dc         1 CLA      0.063600
    107 H122       84.2962   55.8611   40.6823 dc         1 CLA      0.032500
    108 H121       83.7666   57.4454   40.5035 dc         1 CLA      0.032500
    109 H112       82.4626   57.0218   38.4411 dc         1 CLA      0.006600
    110 H111       82.8431   55.3510   38.5080 dc         1 CLA      0.006600
    111 H102       85.3565   56.1265   38.4229 dc         1 CLA      0.024100
    112 H101       84.7768   57.7864   38.4893 dc         1 CLA      0.024100
    113 HHD        71.4162   56.6779   39.2753 da         1 CLA      0.174300
    114 HHC        75.4647   60.5747   42.7670 da         1 CLA      0.136800
    115 HHB        79.5572   60.3384   38.1580 da         1 CLA      0.138300
    116 HBD        75.2250   57.0220   33.5030 dc         1 CLA      0.107700
    117 HAB        77.0196   62.4632   43.3513 da         1 CLA      0.155200
    118 H93        85.4496   57.4709   34.8680 dc         1 CLA      0.069500
    119 H92        85.7030   58.4343   36.2266 dc         1 CLA      0.069500
    120 H91        86.5279   56.8342   36.2519 dc         1 CLA      0.069500
    121 H8         83.5630   57.4142   36.3738 dc         1 CLA      0.029300
    122 H72        83.0892   55.1089   36.4759 dc         1 CLA      0.044400
    123 H71        84.8125   54.6381   36.5843 dc         1 CLA      0.044400
    124 H62        85.1472   54.9577   34.2120 dc         1 CLA      0.015600
    125 H61        83.5697   55.9042   34.0161 dc         1 CLA      0.015600
    126 H52        84.0566   52.9046   34.3935 dc         1 CLA      0.033200
    127 H51        83.4740   53.9250   32.9575 dc         1 CLA      0.033200
    128 H43        81.8476   51.4360   34.3515 dc         1 CLA      0.037000
    129 H42        82.2331   52.1016   35.9684 dc         1 CLA      0.037000
    130 H41        80.6374   52.4040   35.2155 dc         1 CLA      0.037000
    131 H3A        79.2606   59.9520   35.4795 dc         1 CLA      0.041100
    132 H2A        78.3276   57.1015   34.9556 dc         1 CLA      0.083100
    133 H2         81.1174   55.3166   35.2024 da         1 CLA      0.180900
    134 H18        84.2437   59.9046   44.4489 dc         1 CLA     -0.003900
    135 H13        82.2926   55.0060   41.2095 dc         1 CLA      0.019700
    136 H12        79.4256   54.5348   33.2149 dc         1 CLA      0.120400
    137 H11        80.9482   54.5682   32.2888 dc         1 CLA      0.120400
    138 C1         67.6923   61.0170   49.1243 Z1         2 LUT      0.509236
    139 C2         67.6573   61.8004   50.4832 Z2         2 LUT     -0.434695
    140 C3         66.3138   62.4433   50.7333 Z3         2 LUT      0.437453
    141 O3         66.5164   63.0848   51.9645 S1         2 LUT     -0.547129
    142 C4         65.9172   63.4137   49.6347 Z4         2 LUT     -0.468603
    143 C5         66.3705   63.0218   48.2520 Z5         2 LUT      0.279246
    144 C6         67.1188   61.9092   47.9232 Z6         2 LUT     -0.305473
    145 C7         67.8096   61.7650   46.6705 Z7         2 LUT      0.069402
    146 C8         68.9774   62.2641   46.2864 Z8         2 LUT     -0.191631
    147 C9         69.5521   62.1160   44.9649 Z9         2 LUT      0.196698
    148 C10        70.5955   62.9987   44.6079 Y1         2 LUT     -0.208611
    149 C11        71.3899   63.1021   43.3521 Y2         2 LUT      0.030784
    150 C12        72.5979   63.7392   43.0911 Y3         2 LUT     -0.220316
    151 C13        73.5048   63.5904   41.9476 Y4         2 LUT      0.215937
    152 C14        74.8418   63.9561   42.1906 Y5         2 LUT     -0.185793
    153 C15        75.9411   64.0181   41.1959 Y6         2 LUT     -0.057835
    154 C16        66.6939   59.8845   49.3662 Y7         2 LUT     -0.405615
    155 C17        69.1422   60.4682   49.0171 Y7         2 LUT     -0.405615
    156 C18        66.0398   64.2130   47.2706 Y9         2 LUT     -0.369639
    157 C19        68.8667   61.1549   44.0255 W1         2 LUT     -0.333362
    158 C20        73.0015   63.3618   40.5709 W2         2 LUT     -0.323439
    159 C21        86.8216   65.5398   34.7415 Z1         2 LUT      0.406104
    160 C22        87.5690   65.0597   33.4874 Z2         2 LUT     -0.404965
    161 C23        87.6632   66.0636   32.2983 Z3         2 LUT      0.391255
    162 O23        88.3028   65.2938   31.2493 S1         2 LUT     -0.528210
    163 C24        86.2984   66.8165   32.1179 W6         2 LUT     -0.258361
    164 C25        85.3400   66.8433   33.0056 Z5         2 LUT      0.133546
    165 C26        85.3867   66.0588   34.2862 W8         2 LUT     -0.147008
    166 C27        84.6020   66.7775   35.3370 Z7         2 LUT      0.023843
    167 C28        83.4797   66.2542   35.8877 Z8         2 LUT     -0.216987
    168 C29        82.8389   66.7270   37.1220 Z9         2 LUT      0.206524
    169 C30        81.9330   65.8370   37.6244 Y1         2 LUT     -0.215556
    170 C31        81.1888   66.0553   38.8119 Y2         2 LUT      0.025142
    171 C32        80.1466   65.2589   39.1988 Y3         2 LUT     -0.212209
    172 C33        79.2562   65.4536   40.3768 Y4         2 LUT      0.240937
    173 C34        78.1966   64.5758   40.4443 Y5         2 LUT     -0.218862
    174 C35        77.1175   64.6535   41.3788 Y6         2 LUT     -0.023547
    175 C36        87.6840   66.7391   35.3028 Y7         2 LUT     -0.393485
    176 C37        86.8678   64.4185   35.7857 Y7         2 LUT     -0.393485
    177 C38        84.2745   67.8473   32.6522 Y9         2 LUT     -0.387526
    178 C39        83.2221   68.0519   37.7272 W1         2 LUT     -0.322618
    179 C40        79.5252   66.6163   41.3971 W2         2 LUT     -0.358472
    180 H403       79.0801   67.4477   40.8571 R7         2 LUT      0.097720
    181 H402       79.0909   66.5789   42.3519 R7         2 LUT      0.097720
    182 H401       80.5637   66.8783   41.5676 R7         2 LUT      0.097720
    183 H393       82.5214   68.2937   38.4598 R4         2 LUT      0.082505
    184 H392       84.2192   68.1945   38.0469 R4         2 LUT      0.082505
    185 H391       83.0543   68.8041   36.9864 R4         2 LUT      0.082505
    186 H383       84.5466   68.9023   32.8152 R1         2 LUT      0.104030
    187 H382       83.8968   67.6961   31.6407 R1         2 LUT      0.104030
    188 H381       83.4265   67.6307   33.2935 R1         2 LUT      0.104030
    189 H373       87.8824   64.1082   36.0303 T4         2 LUT      0.089537
    190 H372       86.3085   64.7026   36.6950 T4         2 LUT      0.089537
    191 H371       86.2894   63.5459   35.5707 T4         2 LUT      0.089537
    192 H363       88.7361   66.3814   35.3149 T4         2 LUT      0.089537
    193 H362       87.7728   67.6177   34.6593 T4         2 LUT      0.089537
    194 H361       87.3447   67.0005   36.2475 T4         2 LUT      0.089537
    195 H222       88.5585   64.6760   33.7262 U2         2 LUT      0.127376
    196 H221       86.9731   64.1740   33.2866 U2         2 LUT      0.127376
    197 H203       73.4551   64.0728   39.9410 R7         2 LUT      0.087068
    198 H202       73.3328   62.4771   40.0443 R7         2 LUT      0.087068
    199 H201       71.9089   63.4855   40.4858 R7         2 LUT      0.087068
    200 H193       68.9428   60.1400   44.4097 R4         2 LUT      0.089716
    201 H192       67.7965   61.3119   43.9145 R4         2 LUT      0.089716
    202 H191       69.3919   61.1957   43.0154 R4         2 LUT      0.089716
    203 H183       65.0082   64.4735   47.4970 R1         2 LUT      0.094572
    204 H182       66.7602   65.0282   47.3982 R1         2 LUT      0.094572
    205 H181       65.9256   63.8469   46.2236 R1         2 LUT      0.094572
    206 H173       69.3749   59.8724   49.9335 T4         2 LUT      0.093752
    207 H172       69.3736   59.7040   48.2075 T4         2 LUT      0.093752
    208 H171       69.9000   61.3342   48.8952 T4         2 LUT      0.093752
    209 H163       66.9596   59.1699   50.1567 T4         2 LUT      0.093752
    210 H162       65.6157   60.2490   49.4333 T4         2 LUT      0.093752
    211 H161       66.5998   59.3302   48.4867 T4         2 LUT      0.093752
    212 HO3        66.1239   62.5242   52.6354 Q1         2 LUT      0.300121
    213 H8         69.6011   62.8894   46.9994 U7         2 LUT      0.080784
    214 H7         67.1996   61.2415   45.8923 U6         2 LUT      0.042190
    215 H42        64.7933   63.4560   49.6226 U5         2 LUT      0.145166
    216 H41        66.1227   64.4601   49.7825 U5         2 LUT      0.145166
    217 H35        77.1226   65.3458   42.1899 T3         2 LUT      0.077919
    218 H34        78.0072   63.7836   39.6785 T2         2 LUT      0.073626
    219 H32        79.9313   64.3756   38.5821 T1         2 LUT      0.092510
    220 H31        81.5987   66.8442   39.4774 U9         2 LUT      0.070048
    221 H30        81.7097   64.9663   37.0414 U8         2 LUT      0.085442
    222 H3         65.4204   61.7141   50.8544 U3         2 LUT     -0.031596
    223 H28        83.1190   65.3220   35.4237 U7         2 LUT      0.084728
    224 H27        84.8339   67.7578   35.7575 U6         2 LUT      0.087291
    225 H26        84.8889   65.1732   33.9650 Q6         2 LUT      0.075325
    226 H24        86.2421   67.5229   31.2937 Q5         2 LUT      0.094482
    227 H23        88.2922   66.8784   32.6247 U3         2 LUT     -0.024869
    228 H22        67.9456   61.0552   51.2522 U2         2 LUT      0.127376
    229 H21        68.4512   62.5985   50.4580 U2         2 LUT      0.127376
    230 H15        75.6957   63.4367   40.2382 T3         2 LUT      0.093200
    231 H14        74.9958   64.3486   43.1783 T2         2 LUT      0.068865
    232 H12        73.1126   64.2478   43.9426 T1         2 LUT      0.095507
    233 H11        71.0908   62.3945   42.5900 U9         2 LUT      0.068930
    234 H10        70.9007   63.7563   45.3947 U8         2 LUT      0.083911
    235 H1         87.8846   65.3655   30.3562 Q1         2 LUT      0.297311
@<TRIPOS>BOND
    1     6     1 1
    2     7     2 1
    3     8     3 1
    4     9     4 1
    5    11     4 1
    6    12     6 1
    7    13     9 1
    8    16     9 1
    9    25     5 1
   10    25    16 1
   11    26    10 1
   12    26    17 1
   13    27    18 1
   14    28    14 1
   15    28    19 1
   16    29    12 1
   17    30    13 1
   18    31    24 1
   19    32     1 1
   20    32    25 1
   21    33    21 1
   22    33    26 1
   23    34    22 1
   24    34    27 1
   25    35    23 1
   26    35    28 1
   27    36    12 1
   28    36    24 1
   29    37    13 1
   30    37    15 1
   31    38    31 1
   32    39    20 1
   33    39    32 1
   34    40     2 1
   35    40    33 1
   36    41     3 1
   37    41    34 1
   38    42     4 1
   39    42    35 1
   40    43    38 1
   41    44     5 1
   42    44    17 1
   43    44    39 1
   44    45    10 1
   45    45    18 1
   46    45    40 1
   47    46    19 1
   48    46    41 1
   49    47    14 1
   50    47    16 1
   51    47    42 1
   52    48    38 1
   53    49    48 1
   54    50    49 1
   55    51    50 1
   56    52    51 1
   57    53    51 1
   58    54    53 1
   59    55    54 1
   60    56    55 1
   61    57    56 1
   62    58    56 1
   63    59    58 1
   64    60    59 1
   65    61    60 1
   66    62    61 1
   67    63    61 1
   68    64    27 1
   69    64    46 1
   70    65     5 1
   71    65    10 1
   72    65    64 1
   73    65    14 1
   74    66    23 1
   75    67    23 1
   76    68    23 1
   77    69    22 1
   78    70    22 1
   79    71    22 1
   80    72    21 1
   81    73    21 1
   82    74    21 1
   83    75    20 1
   84    76    20 1
   85    77    20 1
   86    78    15 1
   87    79    15 1
   88    80    15 1
   89    81     8 1
   90    82     8 1
   91    83     8 1
   92    84     7 1
   93    85     7 1
   94    86     6 1
   95    87     6 1
   96    88     3 1
   97    89     3 1
   98    90     1 1
   99    91     1 1
  100    92    63 1
  101    93    63 1
  102    94    63 1
  103    95    62 1
  104    96    62 1
  105    97    62 1
  106    98    60 1
  107    99    60 1
  108   100    59 1
  109   101    59 1
  110   102    58 1
  111   103    58 1
  112   104    57 1
  113   105    57 1
  114   106    57 1
  115   107    55 1
  116   108    55 1
  117   109    54 1
  118   110    54 1
  119   111    53 1
  120   112    53 1
  121   113    19 1
  122   114    18 1
  123   115    17 1
  124   116     9 1
  125   117     2 1
  126   118    52 1
  127   119    52 1
  128   120    52 1
  129   121    51 1
  130   122    50 1
  131   123    50 1
  132   124    49 1
  133   125    49 1
  134   126    48 1
  135   127    48 1
  136   128    43 1
  137   129    43 1
  138   130    43 1
  139   131    39 1
  140   132    32 1
  141   133    31 1
  142   134    61 1
  143   135    56 1
  144   136    24 1
  145   137    24 1
  146   139   138 1
  147   140   139 1
  148   141   140 1
  149   142   140 1
  150   143   142 1
  151   144   138 1
  152   144   143 1
  153   145   144 1
  154   146   145 1
  155   147   146 1
  156   148   147 1
  157   149   148 1
  158   150   149 1
  159   151   150 1
  160   152   151 1
  161   153   152 1
  162   154   138 1
  163   155   138 1
  164   156   143 1
  165   157   147 1
  166   158   151 1
  167   160   159 1
  168   161   160 1
  169   162   161 1
  170   163   161 1
  171   164   163 1
  172   165   159 1
  173   165   164 1
  174   166   165 1
  175   167   166 1
  176   168   167 1
  177   169   168 1
  178   170   169 1
  179   171   170 1
  180   172   171 1
  181   173   172 1
  182   174   153 1
  183   174   173 1
  184   175   159 1
  185   176   159 1
  186   177   164 1
  187   178   168 1
  188   179   172 1
  189   180   179 1
  190   181   179 1
  191   182   179 1
  192   183   178 1
  193   184   178 1
  194   185   178 1
  195   186   177 1
  196   187   177 1
  197   188   177 1
  198   189   176 1
  199   190   176 1
  200   191   176 1
  201   192   175 1
  202   193   175 1
  203   194   175 1
  204   195   160 1
  205   196   160 1
  206   197   158 1
  207   198   158 1
  208   199   158 1
  209   200   157 1
  210   201   157 1
  211   202   157 1
  212   203   156 1
  213   204   156 1
  214   205   156 1
  215   206   155 1
  216   207   155 1
  217   208   155 1
  218   209   154 1
  219   210   154 1
  220   211   154 1
  221   212   141 1
  222   213   146 1
  223   214   145 1
  224   215   142 1
  225   216   142 1
  226   217   174 1
  227   218   173 1
  228   219   171 1
  229   220   170 1
  230   221   169 1
  231   222   140 1
  232   223   167 1
  233   224   166 1
  234   225   165 1
  235   226   163 1
  236   227   161 1
  237   228   139 1
  238   229   139 1
  239   230   153 1
  240   231   152 1
  241   232   150 1
  242   233   149 1
  243   234   148 1
  244   235   162 1
  245   65    153 1
  246   65    174 1
@<TRIPOS>SUBSTRUCTURE
      1 CLA               1 ****               0 ****  **** 
      2 LUT             138 ****               0 ****  **** 
