@<TRIPOS>MOLECULE
Cpptraj generated mol2 file.
  235   246     2     0     0
SMALL
USER_CHARGES


@<TRIPOS>ATOM
      1 CAA        77.0751   57.7129   34.7051 a2         1 CLA     -0.055900
      2 CAB        77.1262   61.8876   43.2411 c8         1 CLA     -0.148500
      3 CAC        70.6317   57.3858   43.2167 a2         1 CLA     -0.012600
      4 CAD        73.0046   54.9971   35.7696 ck         1 CLA      0.398800
      5 NA         76.1362   58.1053   37.9556 ns         1 CLA     -0.225500
      6 CBA        78.3371   57.5273   33.8475 a2         1 CLA     -0.135000
      7 CBB        78.0076   61.4681   44.1352 c0         1 CLA     -0.395200
      8 CBC        71.1619   56.0874   43.8217 a3         1 CLA     -0.037700
      9 CBD        74.4626   55.6507   35.4938 a1         1 CLA     -0.053900
     10 NB         75.9621   59.9289   40.3594 nm         1 CLA     -0.295700
     11 OBD        72.2961   54.3426   34.9836 o2         1 CLA     -0.494600
     12 CGA        78.7312   56.1036   33.5407 c4         1 CLA      0.827000
     13 CGD        75.3313   54.5239   35.0669 c4         1 CLA      0.655300
     14 ND         73.3351   57.2373   38.5453 nm         1 CLA     -0.291600
     15 CED        76.9510   52.9261   35.9119 a3         1 CLA      0.005400
     16 CHA        74.7957   56.5465   36.6848 cs         1 CLA     -0.123800
     17 CHB        77.8762   59.6233   38.8295 aa         1 CLA     -0.291900
     18 CHC        74.6505   60.3548   42.3218 aa         1 CLA     -0.090400
     19 CHD        71.6190   57.1847   40.1876 aa         1 CLA     -0.052000
     20 CMA        79.4446   57.0466   37.6760 a3         1 CLA     -0.230700
     21 CMB        79.3565   61.4705   40.8116 a3         1 CLA     -0.180800
     22 CMC        72.4684   59.5997   44.6442 a3         1 CLA     -0.134000
     23 CMD        70.4596   54.9451   38.2370 a3         1 CLA     -0.141100
     24 C1         80.4929   54.6134   34.0622 a2         1 CLA      0.023000
     25 C1A        75.9836   57.2347   36.9590 ac         1 CLA     -0.015100
     26 C1B        77.2630   60.1657   39.9674 cr         1 CLA      0.054700
     27 C1C        73.5267   59.5469   42.1792 cn         1 CLA     -0.005600
     28 C1D        72.1562   56.7988   38.9535 ap         1 CLA     -0.047300
     29 O1A        78.3301   55.3802   32.6230 o2         1 CLA     -0.610800
     30 O1D        75.7164   54.2661   33.9184 o2         1 CLA     -0.558200
     31 C2         81.6055   54.6607   35.0472 c8         1 CLA     -0.325100
     32 C2A        77.2831   57.1850   36.0959 a1         1 CLA      0.098600
     33 C2B        77.9138   60.9945   40.9445 cb         1 CLA      0.088500
     34 C2C        72.5564   59.1394   43.1667 cb         1 CLA      0.053700
     35 C2D        71.6874   55.7161   38.0994 cb         1 CLA      0.058900
     36 O2A        79.7823   55.8466   34.3563 o1         1 CLA     -0.437200
     37 O2D        75.8069   53.8789   36.2188 o1         1 CLA     -0.357600
     38 C3         82.2607   53.6071   35.5854 c5         1 CLA      0.031200
     39 C3A        78.3376   57.9492   36.9884 a1         1 CLA      0.166800
     40 C3B        76.9402   61.2021   42.0010 cb         1 CLA      0.035000
     41 C3C        71.7367   58.1764   42.5793 cb         1 CLA     -0.089900
     42 C3D        72.6464   55.6261   37.0772 cb         1 CLA     -0.035900
     43 C4         81.7022   52.7416   36.6892 a3         1 CLA     -0.053300
     44 C4A        77.3936   58.6441   37.9814 ac         1 CLA      0.001800
     45 C4B        75.7402   60.5259   41.5654 cn         1 CLA     -0.020900
     46 C4C        72.2037   58.0430   41.1532 cr         1 CLA     -0.044400
     47 C4D        73.5898   56.6076   37.4592 c6         1 CLA     -0.046000
     48 C5         83.6289   53.3002   35.1136 a2         1 CLA     -0.070400
     49 C6         84.6599   54.3879   35.5097 a2         1 CLA      0.043900
     50 C7         84.9137   54.6129   37.0388 a2         1 CLA     -0.150000
     51 C8         85.6370   55.9248   37.3646 a1         1 CLA      0.064200
     52 C9         87.1199   55.6725   36.9997 a3         1 CLA     -0.259300
     53 C10        85.5577   56.2861   38.8498 a2         1 CLA     -0.071900
     54 C11        84.1819   56.8413   39.2438 a2         1 CLA      0.014500
     55 C12        84.2226   57.7529   40.5138 a2         1 CLA     -0.112100
     56 C13        84.9321   57.2061   41.8418 a1         1 CLA      0.089200
     57 C14        84.2678   55.9278   42.3489 a3         1 CLA     -0.239100
     58 C15        85.0405   58.2442   43.0142 a2         1 CLA     -0.102200
     59 C16        83.6858   58.5154   43.8415 a2         1 CLA      0.023900
     60 C17        83.8690   59.7128   44.7965 a2         1 CLA     -0.105700
     61 C18        82.6018   60.2467   45.4702 a1         1 CLA      0.206800
     62 C19        82.8184   61.1801   46.6639 a3         1 CLA     -0.280100
     63 C20        81.4987   60.8883   44.5453 a3         1 CLA     -0.280100
     64 NC         73.2972   58.7926   40.9767 nx         1 CLA     -0.309200
     65 MG         74.6407   58.6242   39.4158 mg         1 CLA      0.895000
     66 HMD3       70.3981   54.5795   39.2456 dc         1 CLA      0.064300
     67 HMD2       69.5960   55.7232   37.9818 dc         1 CLA      0.064300
     68 HMD1       70.3885   54.1167   37.5419 dc         1 CLA      0.064300
     69 HMC3       73.3717   60.2300   44.8814 dc         1 CLA      0.052100
     70 HMC2       71.4973   60.1862   44.8318 dc         1 CLA      0.052100
     71 HMC1       72.6046   58.7431   45.2042 dc         1 CLA      0.052100
     72 HMB3       79.2000   62.3955   40.2988 dc         1 CLA      0.063600
     73 HMB2       79.8541   61.5642   41.7395 dc         1 CLA      0.063600
     74 HMB1       79.9689   60.9216   40.1169 dc         1 CLA      0.063600
     75 HMA3       79.8865   56.4603   36.8765 dc         1 CLA      0.058300
     76 HMA2       80.0982   57.6658   38.2344 dc         1 CLA      0.058300
     77 HMA1       78.7946   56.5319   38.3725 dc         1 CLA      0.058300
     78 HED3       76.4850   52.1263   35.3229 dc         1 CLA      0.079300
     79 HED2       77.7496   53.3088   35.3562 dc         1 CLA      0.079300
     80 HED1       77.4218   52.6005   36.8966 dc         1 CLA      0.079300
     81 HBC3       70.4090   55.5811   44.4215 dc         1 CLA      0.016300
     82 HBC2       71.4261   55.3656   43.0273 dc         1 CLA      0.016300
     83 HBC1       72.0454   56.1808   44.4151 dc         1 CLA      0.016300
     84 HBB2       78.1576   61.7639   45.1296 da         1 CLA      0.183000
     85 HBB1       78.6001   60.5895   43.9476 da         1 CLA      0.183000
     86 HBA2       78.1447   57.9530   32.8891 dc         1 CLA      0.029400
     87 HBA1       79.1351   58.1162   34.3457 dc         1 CLA      0.029400
     88 HAC2       70.1713   58.0288   44.0381 dc         1 CLA      0.029300
     89 HAC1       69.8223   57.2557   42.4998 dc         1 CLA      0.029300
     90 HAA2       76.2228   57.2525   34.0874 dc         1 CLA      0.028700
     91 HAA1       76.8823   58.8271   34.6528 dc         1 CLA      0.028700
     92 H203       81.8924   61.8697   44.2404 dc         1 CLA      0.065600
     93 H202       81.3544   60.3727   43.6277 dc         1 CLA      0.065600
     94 H201       80.5547   61.1073   45.1736 dc         1 CLA      0.065600
     95 H193       83.6149   60.8023   47.3213 dc         1 CLA      0.065600
     96 H192       83.3266   61.9920   46.1578 dc         1 CLA      0.065600
     97 H191       81.9805   61.6009   47.1663 dc         1 CLA      0.065600
     98 H172       84.6243   59.3727   45.5188 dc         1 CLA      0.027600
     99 H171       84.1998   60.5585   44.3062 dc         1 CLA      0.027600
    100 H162       82.9217   58.8276   43.1502 dc         1 CLA      0.002900
    101 H161       83.4152   57.6646   44.4288 dc         1 CLA      0.002900
    102 H152       85.7295   57.7760   43.7729 dc         1 CLA      0.029100
    103 H151       85.3382   59.1603   42.5489 dc         1 CLA      0.029100
    104 H143       84.7091   55.7126   43.3031 dc         1 CLA      0.063600
    105 H142       83.1590   56.0370   42.2939 dc         1 CLA      0.063600
    106 H141       84.3907   55.1785   41.6482 dc         1 CLA      0.063600
    107 H122       84.6024   58.6942   40.3817 dc         1 CLA      0.032500
    108 H121       83.1733   57.9167   40.7216 dc         1 CLA      0.032500
    109 H112       83.7471   57.3817   38.4227 dc         1 CLA      0.006600
    110 H111       83.5277   56.0043   39.5894 dc         1 CLA      0.006600
    111 H102       85.7568   55.4221   39.5543 dc         1 CLA      0.024100
    112 H101       86.3515   56.9922   39.0492 dc         1 CLA      0.024100
    113 HHD        70.6577   56.6472   40.4350 da         1 CLA      0.174300
    114 HHC        74.6584   60.8944   43.2827 da         1 CLA      0.136800
    115 HHB        78.7924   59.9815   38.4459 da         1 CLA      0.138300
    116 HBD        74.3005   56.2673   34.6158 dc         1 CLA      0.107700
    117 HAB        76.4921   62.6767   43.6277 da         1 CLA      0.155200
    118 H93        87.5526   54.8430   37.5262 dc         1 CLA      0.069500
    119 H92        87.2651   55.4102   35.9892 dc         1 CLA      0.069500
    120 H91        87.7285   56.5141   37.3458 dc         1 CLA      0.069500
    121 H8         85.2159   56.7422   36.7232 dc         1 CLA      0.029300
    122 H72        83.9650   54.7187   37.5605 dc         1 CLA      0.044400
    123 H71        85.3348   53.6522   37.4095 dc         1 CLA      0.044400
    124 H62        85.5594   54.2955   34.9324 dc         1 CLA      0.015600
    125 H61        84.2649   55.4088   35.2460 dc         1 CLA      0.015600
    126 H52        83.9377   52.4127   35.6448 dc         1 CLA      0.033200
    127 H51        83.5789   53.0955   34.0648 dc         1 CLA      0.033200
    128 H43        82.3884   52.9069   37.5127 dc         1 CLA      0.037000
    129 H42        80.6874   53.0174   37.0187 dc         1 CLA      0.037000
    130 H41        81.5904   51.7844   36.2442 dc         1 CLA      0.037000
    131 H3A        78.8770   58.6576   36.4227 dc         1 CLA      0.041100
    132 H2A        77.5813   56.1899   36.2219 dc         1 CLA      0.083100
    133 H2         81.6572   55.5479   35.7531 da         1 CLA      0.180900
    134 H18        82.1417   59.3963   45.9825 dc         1 CLA     -0.003900
    135 H13        86.0167   57.0062   41.6967 dc         1 CLA      0.019700
    136 H12        79.7632   53.8173   34.3177 dc         1 CLA      0.120400
    137 H11        80.8139   54.3767   33.0111 dc         1 CLA      0.120400
    138 C1         66.9367   60.7000   50.3555 Z1         2 LUT      0.509236
    139 C2         65.6242   60.7207   51.2336 Z2         2 LUT     -0.434695
    140 C3         64.9878   62.0407   51.5752 Z3         2 LUT      0.437453
    141 O3         64.9665   62.2880   52.9904 S1         2 LUT     -0.547129
    142 C4         65.5717   63.1486   50.8245 Z4         2 LUT     -0.468603
    143 C5         66.0485   62.8364   49.4243 Z5         2 LUT      0.279246
    144 C6         66.8217   61.7756   49.1749 Z6         2 LUT     -0.305473
    145 C7         67.1219   61.1724   47.8272 Z7         2 LUT      0.069402
    146 C8         68.0764   61.7407   47.0608 Z8         2 LUT     -0.191631
    147 C9         68.5989   61.2990   45.7807 Z9         2 LUT      0.196698
    148 C10        69.4253   62.1274   45.0807 Y1         2 LUT     -0.208611
    149 C11        70.0854   62.0853   43.8210 Y2         2 LUT      0.030784
    150 C12        71.0732   62.9667   43.4026 Y3         2 LUT     -0.220316
    151 C13        71.9034   62.7533   42.2408 Y4         2 LUT      0.215937
    152 C14        73.1533   63.3261   42.2194 Y5         2 LUT     -0.185793
    153 C15        74.1634   63.2863   41.2056 Y6         2 LUT     -0.057835
    154 C16        67.4302   59.2481   49.9171 Y7         2 LUT     -0.405615
    155 C17        68.0941   60.9542   51.2566 Y7         2 LUT     -0.405615
    156 C18        65.2842   63.5379   48.3461 Y9         2 LUT     -0.369639
    157 C19        67.9131   60.0517   45.1482 W1         2 LUT     -0.333362
    158 C20        71.3478   61.9048   41.1230 W2         2 LUT     -0.323439
    159 C21        85.7991   65.0046   35.2747 Z1         2 LUT      0.406104
    160 C22        86.6071   64.6178   34.0351 Z2         2 LUT     -0.404965
    161 C23        86.6089   65.5378   32.7963 Z3         2 LUT      0.391255
    162 O23        87.3198   64.7984   31.7243 S1         2 LUT     -0.528210
    163 C24        85.3578   66.2175   32.5341 W6         2 LUT     -0.258361
    164 C25        84.2724   66.1845   33.3193 Z5         2 LUT      0.133546
    165 C26        84.3826   65.5169   34.7586 W8         2 LUT     -0.147008
    166 C27        83.3714   66.0525   35.8156 Z7         2 LUT      0.023843
    167 C28        82.2719   65.4562   36.3666 Z8         2 LUT     -0.216987
    168 C29        81.6857   65.7319   37.6490 Z9         2 LUT      0.206524
    169 C30        80.6055   65.0030   38.0241 Y1         2 LUT     -0.215556
    170 C31        79.7471   65.2269   39.1471 Y2         2 LUT      0.025142
    171 C32        78.4796   64.7448   39.3599 Y3         2 LUT     -0.212209
    172 C33        77.5431   64.9158   40.4348 Y4         2 LUT      0.240937
    173 C34        76.3422   64.2965   40.2845 Y5         2 LUT     -0.218862
    174 C35        75.2568   64.1339   41.2189 Y6         2 LUT     -0.023547
    175 C36        86.5651   66.1273   35.9776 Y7         2 LUT     -0.393485
    176 C37        85.7841   63.8182   36.3334 Y7         2 LUT     -0.393485
    177 C38        82.8980   66.7497   32.9402 Y9         2 LUT     -0.387526
    178 C39        82.2710   66.6818   38.6253 W1         2 LUT     -0.322618
    179 C40        77.8432   65.6885   41.6881 W2         2 LUT     -0.358472
    180 H403       77.9359   66.7604   41.5648 R7         2 LUT      0.097720
    181 H402       77.0566   65.6248   42.4126 R7         2 LUT      0.097720
    182 H401       78.7123   65.2971   42.2156 R7         2 LUT      0.097720
    183 H393       81.8578   66.6944   39.6779 R4         2 LUT      0.082505
    184 H392       83.3847   66.6720   38.6601 R4         2 LUT      0.082505
    185 H391       82.0074   67.6585   38.1945 R4         2 LUT      0.082505
    186 H383       82.8714   67.6846   33.5267 R1         2 LUT      0.104030
    187 H382       82.8676   67.0471   31.8968 R1         2 LUT      0.104030
    188 H381       82.0352   66.1244   33.0546 R1         2 LUT      0.104030
    189 H373       85.5477   64.2736   37.2575 T4         2 LUT      0.089537
    190 H372       85.1645   62.9409   36.0985 T4         2 LUT      0.089537
    191 H371       86.7921   63.4058   36.4158 T4         2 LUT      0.089537
    192 H363       87.5904   65.8518   35.9921 T4         2 LUT      0.089537
    193 H362       86.5836   67.1592   35.5495 T4         2 LUT      0.089537
    194 H361       86.2277   66.1461   37.0579 T4         2 LUT      0.089537
    195 H222       87.6631   64.4203   34.2939 U2         2 LUT      0.127376
    196 H221       86.1164   63.6991   33.7424 U2         2 LUT      0.127376
    197 H203       71.7621   61.9960   40.1189 R7         2 LUT      0.087068
    198 H202       71.2843   60.8281   41.4142 R7         2 LUT      0.087068
    199 H201       70.2916   62.2244   40.8680 R7         2 LUT      0.087068
    200 H193       66.9115   59.8107   45.4780 R4         2 LUT      0.089716
    201 H192       67.9798   59.9759   44.0608 R4         2 LUT      0.089716
    202 H191       68.4695   59.1242   45.3745 R4         2 LUT      0.089716
    203 H183       65.7963   64.4695   48.1319 R1         2 LUT      0.094572
    204 H182       65.3519   63.0156   47.3897 R1         2 LUT      0.094572
    205 H181       64.2573   63.7194   48.6074 R1         2 LUT      0.094572
    206 H173       69.1076   60.8995   50.6983 T4         2 LUT      0.093752
    207 H172       68.1167   61.9428   51.7830 T4         2 LUT      0.093752
    208 H171       68.1531   60.2121   52.0574 T4         2 LUT      0.093752
    209 H163       67.4250   58.5721   50.7544 T4         2 LUT      0.093752
    210 H162       66.6293   58.8704   49.3687 T4         2 LUT      0.093752
    211 H161       68.3753   59.2159   49.3507 T4         2 LUT      0.093752
    212 HO3        65.8357   62.4646   53.3521 Q1         2 LUT      0.300121
    213 H8         68.4366   62.6759   47.4061 U7         2 LUT      0.080784
    214 H7         66.7824   60.2371   47.4998 U6         2 LUT      0.042190
    215 H42        64.8999   63.9999   50.9147 U5         2 LUT      0.145166
    216 H41        66.4202   63.6989   51.2830 U5         2 LUT      0.145166
    217 H35        75.3405   64.6871   42.1908 T3         2 LUT      0.077919
    218 H34        76.1527   63.7285   39.3099 T2         2 LUT      0.073626
    219 H32        78.1226   64.1494   38.5196 T1         2 LUT      0.092510
    220 H31        80.0651   65.8217   39.9709 U9         2 LUT      0.070048
    221 H30        80.3842   64.2634   37.2791 U8         2 LUT      0.085442
    222 H3         63.9272   62.0111   51.2754 U3         2 LUT     -0.031596
    223 H28        81.9069   64.5596   35.8145 U7         2 LUT      0.084728
    224 H27        83.8276   66.7907   36.4706 U6         2 LUT      0.087291
    225 H26        83.9387   64.5247   34.4642 Q6         2 LUT      0.075325
    226 H24        85.2920   66.7615   31.5375 Q5         2 LUT      0.094482
    227 H23        87.3462   66.3626   32.7538 U3         2 LUT     -0.024869
    228 H22        64.8801   60.2318   50.6580 U2         2 LUT      0.127376
    229 H21        65.7028   60.0231   52.0768 U2         2 LUT      0.127376
    230 H15        73.9876   62.6675   40.3311 T3         2 LUT      0.093200
    231 H14        73.4165   63.8553   43.0734 T2         2 LUT      0.068865
    232 H12        71.3954   63.7229   44.2157 T1         2 LUT      0.095507
    233 H11        69.7667   61.2500   43.2177 U9         2 LUT      0.068930
    234 H10        69.6898   63.0499   45.6026 U8         2 LUT      0.083911
    235 H1         86.6568   64.3261   31.2115 Q1         2 LUT      0.297311
@<TRIPOS>BOND
    1     6     1 1
    2     7     2 1
    3     8     3 1
    4     9     4 1
    5    11     4 1
    6    12     6 1
    7    13     9 1
    8    16     9 1
    9    25     5 1
   10    25    16 1
   11    26    10 1
   12    26    17 1
   13    27    18 1
   14    28    14 1
   15    28    19 1
   16    29    12 1
   17    30    13 1
   18    31    24 1
   19    32     1 1
   20    32    25 1
   21    33    21 1
   22    33    26 1
   23    34    22 1
   24    34    27 1
   25    35    23 1
   26    35    28 1
   27    36    12 1
   28    36    24 1
   29    37    13 1
   30    37    15 1
   31    38    31 1
   32    39    20 1
   33    39    32 1
   34    40     2 1
   35    40    33 1
   36    41     3 1
   37    41    34 1
   38    42     4 1
   39    42    35 1
   40    43    38 1
   41    44     5 1
   42    44    17 1
   43    44    39 1
   44    45    10 1
   45    45    18 1
   46    45    40 1
   47    46    19 1
   48    46    41 1
   49    47    14 1
   50    47    16 1
   51    47    42 1
   52    48    38 1
   53    49    48 1
   54    50    49 1
   55    51    50 1
   56    52    51 1
   57    53    51 1
   58    54    53 1
   59    55    54 1
   60    56    55 1
   61    57    56 1
   62    58    56 1
   63    59    58 1
   64    60    59 1
   65    61    60 1
   66    62    61 1
   67    63    61 1
   68    64    27 1
   69    64    46 1
   70    65     5 1
   71    65    10 1
   72    65    64 1
   73    65    14 1
   74    66    23 1
   75    67    23 1
   76    68    23 1
   77    69    22 1
   78    70    22 1
   79    71    22 1
   80    72    21 1
   81    73    21 1
   82    74    21 1
   83    75    20 1
   84    76    20 1
   85    77    20 1
   86    78    15 1
   87    79    15 1
   88    80    15 1
   89    81     8 1
   90    82     8 1
   91    83     8 1
   92    84     7 1
   93    85     7 1
   94    86     6 1
   95    87     6 1
   96    88     3 1
   97    89     3 1
   98    90     1 1
   99    91     1 1
  100    92    63 1
  101    93    63 1
  102    94    63 1
  103    95    62 1
  104    96    62 1
  105    97    62 1
  106    98    60 1
  107    99    60 1
  108   100    59 1
  109   101    59 1
  110   102    58 1
  111   103    58 1
  112   104    57 1
  113   105    57 1
  114   106    57 1
  115   107    55 1
  116   108    55 1
  117   109    54 1
  118   110    54 1
  119   111    53 1
  120   112    53 1
  121   113    19 1
  122   114    18 1
  123   115    17 1
  124   116     9 1
  125   117     2 1
  126   118    52 1
  127   119    52 1
  128   120    52 1
  129   121    51 1
  130   122    50 1
  131   123    50 1
  132   124    49 1
  133   125    49 1
  134   126    48 1
  135   127    48 1
  136   128    43 1
  137   129    43 1
  138   130    43 1
  139   131    39 1
  140   132    32 1
  141   133    31 1
  142   134    61 1
  143   135    56 1
  144   136    24 1
  145   137    24 1
  146   139   138 1
  147   140   139 1
  148   141   140 1
  149   142   140 1
  150   143   142 1
  151   144   138 1
  152   144   143 1
  153   145   144 1
  154   146   145 1
  155   147   146 1
  156   148   147 1
  157   149   148 1
  158   150   149 1
  159   151   150 1
  160   152   151 1
  161   153   152 1
  162   154   138 1
  163   155   138 1
  164   156   143 1
  165   157   147 1
  166   158   151 1
  167   160   159 1
  168   161   160 1
  169   162   161 1
  170   163   161 1
  171   164   163 1
  172   165   159 1
  173   165   164 1
  174   166   165 1
  175   167   166 1
  176   168   167 1
  177   169   168 1
  178   170   169 1
  179   171   170 1
  180   172   171 1
  181   173   172 1
  182   174   153 1
  183   174   173 1
  184   175   159 1
  185   176   159 1
  186   177   164 1
  187   178   168 1
  188   179   172 1
  189   180   179 1
  190   181   179 1
  191   182   179 1
  192   183   178 1
  193   184   178 1
  194   185   178 1
  195   186   177 1
  196   187   177 1
  197   188   177 1
  198   189   176 1
  199   190   176 1
  200   191   176 1
  201   192   175 1
  202   193   175 1
  203   194   175 1
  204   195   160 1
  205   196   160 1
  206   197   158 1
  207   198   158 1
  208   199   158 1
  209   200   157 1
  210   201   157 1
  211   202   157 1
  212   203   156 1
  213   204   156 1
  214   205   156 1
  215   206   155 1
  216   207   155 1
  217   208   155 1
  218   209   154 1
  219   210   154 1
  220   211   154 1
  221   212   141 1
  222   213   146 1
  223   214   145 1
  224   215   142 1
  225   216   142 1
  226   217   174 1
  227   218   173 1
  228   219   171 1
  229   220   170 1
  230   221   169 1
  231   222   140 1
  232   223   167 1
  233   224   166 1
  234   225   165 1
  235   226   163 1
  236   227   161 1
  237   228   139 1
  238   229   139 1
  239   230   153 1
  240   231   152 1
  241   232   150 1
  242   233   149 1
  243   234   148 1
  244   235   162 1
  245   65    153 1
  246   65    174 1
@<TRIPOS>SUBSTRUCTURE
      1 CLA               1 ****               0 ****  **** 
      2 LUT             138 ****               0 ****  **** 
