@<TRIPOS>MOLECULE
Cpptraj generated mol2 file.
  235   246     2     0     0
SMALL
USER_CHARGES


@<TRIPOS>ATOM
      1 CAA        77.0036   57.9412   33.3134 a2         1 CLA     -0.055900
      2 CAB        77.2612   61.7361   42.3737 c8         1 CLA     -0.148500
      3 CAC        70.3915   57.7044   42.2424 a2         1 CLA     -0.012600
      4 CAD        72.8820   55.4714   34.7267 ck         1 CLA      0.398800
      5 NA         76.0654   58.4780   36.8451 ns         1 CLA     -0.225500
      6 CBA        78.2540   57.6161   32.4740 a2         1 CLA     -0.135000
      7 CBB        78.3740   61.5284   43.1664 c0         1 CLA     -0.395200
      8 CBC        70.4463   56.1735   42.2858 a3         1 CLA     -0.037700
      9 CBD        74.3824   56.0173   34.3514 a1         1 CLA     -0.053900
     10 NB         75.9290   59.9090   39.4150 nm         1 CLA     -0.295700
     11 OBD        72.2844   54.6591   34.0221 o2         1 CLA     -0.494600
     12 CGA        78.6118   56.1464   32.3199 c4         1 CLA      0.827000
     13 CGD        75.3617   54.8283   34.4037 c4         1 CLA      0.655300
     14 ND         73.2210   57.7157   37.4341 nm         1 CLA     -0.291600
     15 CED        76.1065   52.8126   35.5290 a3         1 CLA      0.005400
     16 CHA        74.6776   57.0523   35.4502 cs         1 CLA     -0.123800
     17 CHB        77.8333   59.7302   37.8928 aa         1 CLA     -0.291900
     18 CHC        74.6662   60.3384   41.4303 aa         1 CLA     -0.090400
     19 CHD        71.3819   57.5579   39.1111 aa         1 CLA     -0.052000
     20 CMA        79.4199   57.6928   36.0979 a3         1 CLA     -0.230700
     21 CMB        79.1276   61.8591   39.7413 a3         1 CLA     -0.180800
     22 CMC        72.7569   59.7148   43.7032 a3         1 CLA     -0.134000
     23 CMD        70.1199   55.6500   36.8561 a3         1 CLA     -0.141100
     24 C1         79.6576   54.3407   33.3180 a2         1 CLA      0.023000
     25 C1A        75.8842   57.6784   35.6757 ac         1 CLA     -0.015100
     26 C1B        77.2983   60.2212   39.0315 cr         1 CLA      0.054700
     27 C1C        73.5730   59.5208   41.2351 cn         1 CLA     -0.005600
     28 C1D        71.9717   57.2994   37.8714 ap         1 CLA     -0.047300
     29 O1A        78.2643   55.4468   31.3991 o2         1 CLA     -0.610800
     30 O1D        76.1505   54.5208   33.5494 o2         1 CLA     -0.558200
     31 C2         80.3871   53.9951   34.6158 c8         1 CLA     -0.325100
     32 C2A        77.1439   57.6546   34.8183 a1         1 CLA      0.098600
     33 C2B        77.8574   61.1361   39.9646 cb         1 CLA      0.088500
     34 C2C        72.6035   59.1687   42.2646 cb         1 CLA      0.053700
     35 C2D        71.3798   56.4124   36.8296 cb         1 CLA      0.058900
     36 O2A        79.4559   55.7673   33.3365 o1         1 CLA     -0.437200
     37 O2D        75.3123   54.0875   35.5435 o1         1 CLA     -0.357600
     38 C3         81.3404   53.0157   34.7095 c5         1 CLA      0.031200
     39 C3A        78.2204   58.5247   35.6208 a1         1 CLA      0.166800
     40 C3B        77.0315   61.0624   41.1050 cb         1 CLA      0.035000
     41 C3C        71.6418   58.3608   41.6233 cb         1 CLA     -0.089900
     42 C3D        72.4297   56.2504   35.8907 cb         1 CLA     -0.035900
     43 C4         80.9364   51.6402   35.1889 a3         1 CLA     -0.053300
     44 C4A        77.3426   58.9165   36.8686 ac         1 CLA      0.001800
     45 C4B        75.7839   60.4425   40.6147 cn         1 CLA     -0.020900
     46 C4C        72.0480   58.2565   40.1764 cr         1 CLA     -0.044400
     47 C4D        73.4944   57.1123   36.2584 c6         1 CLA     -0.046000
     48 C5         82.8449   53.2345   34.4782 a2         1 CLA     -0.070400
     49 C6         83.3275   54.7030   34.4984 a2         1 CLA      0.043900
     50 C7         83.4310   55.1457   35.9760 a2         1 CLA     -0.150000
     51 C8         83.6473   56.7469   36.2777 a1         1 CLA      0.064200
     52 C9         84.9656   57.4190   35.8220 a3         1 CLA     -0.259300
     53 C10        83.5040   57.1365   37.7005 a2         1 CLA     -0.071900
     54 C11        82.2292   56.6184   38.5075 a2         1 CLA      0.014500
     55 C12        82.2834   57.1922   39.9805 a2         1 CLA     -0.112100
     56 C13        81.0173   56.8194   40.7646 a1         1 CLA      0.089200
     57 C14        79.7475   57.7176   40.4051 a3         1 CLA     -0.239100
     58 C15        81.1611   56.8473   42.3106 a2         1 CLA     -0.102200
     59 C16        81.6107   58.1809   42.9336 a2         1 CLA      0.023900
     60 C17        81.5411   58.0188   44.4391 a2         1 CLA     -0.105700
     61 C18        81.9942   59.1893   45.3394 a1         1 CLA      0.206800
     62 C19        83.5039   59.2550   45.3517 a3         1 CLA     -0.280100
     63 C20        81.2893   60.4969   45.0660 a3         1 CLA     -0.280100
     64 NC         73.3016   58.8553   40.0952 nx         1 CLA     -0.309200
     65 MG         74.6072   58.8059   38.3749 mg         1 CLA      0.895000
     66 HMD3       69.3843   56.3052   36.3725 dc         1 CLA      0.064300
     67 HMD2       70.2366   54.7076   36.3000 dc         1 CLA      0.064300
     68 HMD1       69.8698   55.4919   37.9144 dc         1 CLA      0.064300
     69 HMC3       73.7812   59.8191   44.0914 dc         1 CLA      0.052100
     70 HMC2       72.1866   60.6704   43.6164 dc         1 CLA      0.052100
     71 HMC1       72.1789   59.0915   44.4444 dc         1 CLA      0.052100
     72 HMB3       78.9834   62.7630   40.3721 dc         1 CLA      0.063600
     73 HMB2       79.8849   61.2142   40.0500 dc         1 CLA      0.063600
     74 HMB1       79.1782   62.1127   38.6524 dc         1 CLA      0.063600
     75 HMA3       80.0382   58.3462   36.6446 dc         1 CLA      0.058300
     76 HMA2       79.1034   56.8536   36.7517 dc         1 CLA      0.058300
     77 HMA1       79.9244   57.3128   35.2700 dc         1 CLA      0.058300
     78 HED3       75.6268   52.2459   36.2713 dc         1 CLA      0.079300
     79 HED2       75.9134   52.1774   34.6357 dc         1 CLA      0.079300
     80 HED1       77.1094   52.9351   35.7494 dc         1 CLA      0.079300
     81 HBC3       71.4844   55.8659   42.4138 dc         1 CLA      0.016300
     82 HBC2       69.8160   55.5918   42.9890 dc         1 CLA      0.016300
     83 HBC1       70.1080   55.8205   41.2403 dc         1 CLA      0.016300
     84 HBB2       78.3905   61.8350   44.2172 da         1 CLA      0.183000
     85 HBB1       79.1744   60.9339   42.7731 da         1 CLA      0.183000
     86 HBA2       78.2165   57.9854   31.3963 dc         1 CLA      0.029400
     87 HBA1       79.0174   58.1766   32.9962 dc         1 CLA      0.029400
     88 HAC2       70.3432   57.9279   43.3398 dc         1 CLA      0.029300
     89 HAC1       69.4206   57.9287   41.6680 dc         1 CLA      0.029300
     90 HAA2       76.2547   57.2176   32.9054 dc         1 CLA      0.028700
     91 HAA1       76.6328   58.9356   33.1961 dc         1 CLA      0.028700
     92 H203       81.4204   60.8198   44.0186 dc         1 CLA      0.065600
     93 H202       80.2082   60.3674   45.3033 dc         1 CLA      0.065600
     94 H201       81.6129   61.2820   45.7606 dc         1 CLA      0.065600
     95 H193       83.7801   58.3534   45.8418 dc         1 CLA      0.065600
     96 H192       83.9105   59.4006   44.3594 dc         1 CLA      0.065600
     97 H191       83.9061   60.0659   45.9514 dc         1 CLA      0.065600
     98 H172       80.5127   57.7887   44.8061 dc         1 CLA      0.027600
     99 H171       82.0734   57.1453   44.7298 dc         1 CLA      0.027600
    100 H162       82.6029   58.4687   42.6254 dc         1 CLA      0.002900
    101 H161       80.8356   58.8997   42.5486 dc         1 CLA      0.002900
    102 H152       80.1636   56.5504   42.6960 dc         1 CLA      0.029100
    103 H151       81.9395   56.1384   42.6161 dc         1 CLA      0.029100
    104 H143       78.9402   57.5421   41.1161 dc         1 CLA      0.063600
    105 H142       79.9428   58.7448   40.6009 dc         1 CLA      0.063600
    106 H141       79.3796   57.6857   39.4178 dc         1 CLA      0.063600
    107 H122       83.2252   56.8973   40.4678 dc         1 CLA      0.032500
    108 H121       82.2826   58.2898   39.8094 dc         1 CLA      0.032500
    109 H112       81.3028   57.1121   38.0003 dc         1 CLA      0.006600
    110 H111       82.2504   55.5547   38.5274 dc         1 CLA      0.006600
    111 H102       84.3039   56.5562   38.1706 dc         1 CLA      0.024100
    112 H101       83.5934   58.2182   37.7170 dc         1 CLA      0.024100
    113 HHD        70.4413   57.2233   39.4504 da         1 CLA      0.174300
    114 HHC        74.7946   60.8055   42.4264 da         1 CLA      0.136800
    115 HHB        78.8145   60.0441   37.7387 da         1 CLA      0.138300
    116 HBD        74.2869   56.4823   33.4031 dc         1 CLA      0.107700
    117 HAB        76.3999   62.3861   42.7645 da         1 CLA      0.155200
    118 H93        85.7917   57.0998   36.5063 dc         1 CLA      0.069500
    119 H92        85.0709   57.2285   34.8153 dc         1 CLA      0.069500
    120 H91        84.9843   58.5619   35.8542 dc         1 CLA      0.069500
    121 H8         82.8056   57.3265   35.7938 dc         1 CLA      0.029300
    122 H72        82.5361   54.7533   36.4608 dc         1 CLA      0.044400
    123 H71        84.2134   54.6179   36.4853 dc         1 CLA      0.044400
    124 H62        84.3596   54.6432   34.1544 dc         1 CLA      0.015600
    125 H61        82.6637   55.3614   33.9684 dc         1 CLA      0.015600
    126 H52        83.3884   52.6356   35.2204 dc         1 CLA      0.033200
    127 H51        83.0790   52.8025   33.4779 dc         1 CLA      0.033200
    128 H43        79.9287   51.9391   35.5881 dc         1 CLA      0.037000
    129 H42        81.0066   50.9456   34.3676 dc         1 CLA      0.037000
    130 H41        81.6619   51.4268   35.9957 dc         1 CLA      0.037000
    131 H3A        78.6658   59.3924   35.1122 dc         1 CLA      0.041100
    132 H2A        77.4668   56.6000   34.7555 dc         1 CLA      0.083100
    133 H2         80.1599   54.5455   35.5737 da         1 CLA      0.180900
    134 H18        81.6967   58.9731   46.3725 dc         1 CLA     -0.003900
    135 H13        80.7268   55.8155   40.5076 dc         1 CLA      0.019700
    136 H12        78.7136   53.7391   33.2711 dc         1 CLA      0.120400
    137 H11        80.2752   54.0466   32.4932 dc         1 CLA      0.120400
    138 C1         66.6986   61.5639   49.4128 Z1         2 LUT      0.509236
    139 C2         66.8746   62.7383   50.3639 Z2         2 LUT     -0.434695
    140 C3         65.5895   63.6386   50.4862 Z3         2 LUT      0.437453
    141 O3         66.1483   64.9677   50.6902 S1         2 LUT     -0.547129
    142 C4         64.8604   63.6933   49.1226 Z4         2 LUT     -0.468603
    143 C5         65.5470   63.2438   47.9372 Z5         2 LUT      0.279246
    144 C6         66.3481   62.1214   47.9476 Z6         2 LUT     -0.305473
    145 C7         67.2806   61.6773   46.9225 Z7         2 LUT      0.069402
    146 C8         68.1028   62.3126   46.0460 Z8         2 LUT     -0.191631
    147 C9         68.9239   61.8825   44.9116 Z9         2 LUT      0.196698
    148 C10        69.7106   62.8710   44.3657 Y1         2 LUT     -0.208611
    149 C11        70.4553   62.8528   43.1359 Y2         2 LUT      0.030784
    150 C12        71.6606   63.4430   42.8457 Y3         2 LUT     -0.220316
    151 C13        72.4759   63.3447   41.6059 Y4         2 LUT      0.215937
    152 C14        73.6995   63.9273   41.6417 Y5         2 LUT     -0.185793
    153 C15        74.7992   63.9009   40.6825 Y6         2 LUT     -0.057835
    154 C16        65.4486   60.7159   49.8592 Y7         2 LUT     -0.405615
    155 C17        67.9953   60.7041   49.5753 Y7         2 LUT     -0.405615
    156 C18        65.4324   64.1588   46.7265 Y9         2 LUT     -0.369639
    157 C19        68.7446   60.5359   44.2845 W1         2 LUT     -0.333362
    158 C20        72.0147   62.4738   40.5186 W2         2 LUT     -0.323439
    159 C21        86.2931   64.3380   34.5785 Z1         2 LUT      0.406104
    160 C22        87.0743   63.7613   33.3524 Z2         2 LUT     -0.404965
    161 C23        87.3033   64.7161   32.2434 Z3         2 LUT      0.391255
    162 O23        87.9610   64.0653   31.1739 S1         2 LUT     -0.528210
    163 C24        86.0157   65.4524   31.9678 W6         2 LUT     -0.258361
    164 C25        84.8987   65.5666   32.7273 Z5         2 LUT      0.133546
    165 C26        84.8449   64.8703   34.0527 W8         2 LUT     -0.147008
    166 C27        84.0380   65.6402   35.1081 Z7         2 LUT      0.023843
    167 C28        82.8723   65.2258   35.7231 Z8         2 LUT     -0.216987
    168 C29        82.3277   65.7511   36.9414 Z9         2 LUT      0.206524
    169 C30        81.2005   65.2361   37.4554 Y1         2 LUT     -0.215556
    170 C31        80.3729   65.6395   38.5509 Y2         2 LUT      0.025142
    171 C32        79.1407   65.0705   38.7080 Y3         2 LUT     -0.212209
    172 C33        78.2549   65.3304   39.7763 Y4         2 LUT      0.240937
    173 C34        77.0441   64.5438   39.8300 Y5         2 LUT     -0.218862
    174 C35        75.9865   64.6279   40.8308 Y6         2 LUT     -0.023547
    175 C36        87.1936   65.4512   35.1390 Y7         2 LUT     -0.393485
    176 C37        86.0703   63.2029   35.6666 Y7         2 LUT     -0.393485
    177 C38        83.6966   66.5023   32.3821 Y9         2 LUT     -0.387526
    178 C39        83.0384   66.9430   37.6427 W1         2 LUT     -0.322618
    179 C40        78.4044   66.5499   40.6062 W2         2 LUT     -0.358472
    180 H403       77.7727   66.5767   41.3991 R7         2 LUT      0.097720
    181 H402       79.4287   66.7208   40.8561 R7         2 LUT      0.097720
    182 H401       78.0759   67.3672   40.0293 R7         2 LUT      0.097720
    183 H393       82.5766   67.2374   38.5363 R4         2 LUT      0.082505
    184 H392       84.0972   66.6888   37.8931 R4         2 LUT      0.082505
    185 H391       83.0734   67.7938   36.9701 R4         2 LUT      0.082505
    186 H383       83.9598   67.1409   31.5150 R1         2 LUT      0.104030
    187 H382       82.7530   65.9457   32.0825 R1         2 LUT      0.104030
    188 H381       83.3821   67.2298   33.1361 R1         2 LUT      0.104030
    189 H373       85.4472   62.3315   35.4782 T4         2 LUT      0.089537
    190 H372       87.0952   62.7402   35.9984 T4         2 LUT      0.089537
    191 H371       85.6138   63.7048   36.5730 T4         2 LUT      0.089537
    192 H363       86.8620   65.9838   36.0878 T4         2 LUT      0.089537
    193 H362       88.2896   65.0848   35.2735 T4         2 LUT      0.089537
    194 H361       87.2533   66.3012   34.4538 T4         2 LUT      0.089537
    195 H222       88.0304   63.3595   33.7355 U2         2 LUT      0.127376
    196 H221       86.5548   62.8497   32.9347 U2         2 LUT      0.127376
    197 H203       71.7484   61.4806   40.9025 R7         2 LUT      0.087068
    198 H202       71.2027   62.9715   39.9667 R7         2 LUT      0.087068
    199 H201       72.7335   62.2626   39.7192 R7         2 LUT      0.087068
    200 H193       68.0379   60.6474   43.4332 R4         2 LUT      0.089716
    201 H192       69.6916   60.2071   44.0128 R4         2 LUT      0.089716
    202 H191       68.3820   59.8611   45.0146 R4         2 LUT      0.089716
    203 H183       65.4977   63.6081   45.7846 R1         2 LUT      0.094572
    204 H182       64.4606   64.6917   46.8572 R1         2 LUT      0.094572
    205 H181       66.2117   64.9112   46.6725 R1         2 LUT      0.094572
    206 H173       68.8289   61.2983   49.1906 T4         2 LUT      0.093752
    207 H172       68.2506   60.3664   50.5686 T4         2 LUT      0.093752
    208 H171       67.9729   59.8172   48.9375 T4         2 LUT      0.093752
    209 H163       64.4273   61.0843   49.7602 T4         2 LUT      0.093752
    210 H162       65.5575   59.7349   49.4218 T4         2 LUT      0.093752
    211 H161       65.6313   60.6082   50.9009 T4         2 LUT      0.093752
    212 HO3        65.4748   65.3870   51.2422 Q1         2 LUT      0.300121
    213 H8         68.0578   63.3783   46.2175 U7         2 LUT      0.080784
    214 H7         67.2149   60.5382   46.8265 U6         2 LUT      0.042190
    215 H42        63.8800   63.1901   49.1406 U5         2 LUT      0.145166
    216 H41        64.4825   64.7197   48.9723 U5         2 LUT      0.145166
    217 H35        76.0740   65.2246   41.7654 T3         2 LUT      0.077919
    218 H34        76.8814   63.8207   39.0533 T2         2 LUT      0.073626
    219 H32        78.8861   64.1934   38.0852 T1         2 LUT      0.092510
    220 H31        80.7318   66.3761   39.2761 U9         2 LUT      0.070048
    221 H30        80.6576   64.4685   36.8749 U8         2 LUT      0.085442
    222 H3         65.0553   63.2087   51.4085 U3         2 LUT     -0.031596
    223 H28        82.2613   64.4283   35.2565 U7         2 LUT      0.084728
    224 H27        84.6153   66.3467   35.7199 U6         2 LUT      0.087291
    225 H26        84.3007   63.9464   33.7721 Q6         2 LUT      0.075325
    226 H24        85.9380   66.1087   31.0742 Q5         2 LUT      0.094482
    227 H23        87.9708   65.5619   32.5170 U3         2 LUT     -0.024869
    228 H22        67.0068   62.3852   51.3730 U2         2 LUT      0.127376
    229 H21        67.7618   63.3684   50.1772 U2         2 LUT      0.127376
    230 H15        74.5740   63.3878   39.7083 T3         2 LUT      0.093200
    231 H14        74.0806   64.2954   42.6090 T2         2 LUT      0.068865
    232 H12        72.1585   63.9495   43.6688 T1         2 LUT      0.095507
    233 H11        70.1524   62.1279   42.3868 U9         2 LUT      0.068930
    234 H10        69.8940   63.7789   44.8976 U8         2 LUT      0.083911
    235 H1         87.3997   63.8639   30.4143 Q1         2 LUT      0.297311
@<TRIPOS>BOND
    1     6     1 1
    2     7     2 1
    3     8     3 1
    4     9     4 1
    5    11     4 1
    6    12     6 1
    7    13     9 1
    8    16     9 1
    9    25     5 1
   10    25    16 1
   11    26    10 1
   12    26    17 1
   13    27    18 1
   14    28    14 1
   15    28    19 1
   16    29    12 1
   17    30    13 1
   18    31    24 1
   19    32     1 1
   20    32    25 1
   21    33    21 1
   22    33    26 1
   23    34    22 1
   24    34    27 1
   25    35    23 1
   26    35    28 1
   27    36    12 1
   28    36    24 1
   29    37    13 1
   30    37    15 1
   31    38    31 1
   32    39    20 1
   33    39    32 1
   34    40     2 1
   35    40    33 1
   36    41     3 1
   37    41    34 1
   38    42     4 1
   39    42    35 1
   40    43    38 1
   41    44     5 1
   42    44    17 1
   43    44    39 1
   44    45    10 1
   45    45    18 1
   46    45    40 1
   47    46    19 1
   48    46    41 1
   49    47    14 1
   50    47    16 1
   51    47    42 1
   52    48    38 1
   53    49    48 1
   54    50    49 1
   55    51    50 1
   56    52    51 1
   57    53    51 1
   58    54    53 1
   59    55    54 1
   60    56    55 1
   61    57    56 1
   62    58    56 1
   63    59    58 1
   64    60    59 1
   65    61    60 1
   66    62    61 1
   67    63    61 1
   68    64    27 1
   69    64    46 1
   70    65     5 1
   71    65    10 1
   72    65    64 1
   73    65    14 1
   74    66    23 1
   75    67    23 1
   76    68    23 1
   77    69    22 1
   78    70    22 1
   79    71    22 1
   80    72    21 1
   81    73    21 1
   82    74    21 1
   83    75    20 1
   84    76    20 1
   85    77    20 1
   86    78    15 1
   87    79    15 1
   88    80    15 1
   89    81     8 1
   90    82     8 1
   91    83     8 1
   92    84     7 1
   93    85     7 1
   94    86     6 1
   95    87     6 1
   96    88     3 1
   97    89     3 1
   98    90     1 1
   99    91     1 1
  100    92    63 1
  101    93    63 1
  102    94    63 1
  103    95    62 1
  104    96    62 1
  105    97    62 1
  106    98    60 1
  107    99    60 1
  108   100    59 1
  109   101    59 1
  110   102    58 1
  111   103    58 1
  112   104    57 1
  113   105    57 1
  114   106    57 1
  115   107    55 1
  116   108    55 1
  117   109    54 1
  118   110    54 1
  119   111    53 1
  120   112    53 1
  121   113    19 1
  122   114    18 1
  123   115    17 1
  124   116     9 1
  125   117     2 1
  126   118    52 1
  127   119    52 1
  128   120    52 1
  129   121    51 1
  130   122    50 1
  131   123    50 1
  132   124    49 1
  133   125    49 1
  134   126    48 1
  135   127    48 1
  136   128    43 1
  137   129    43 1
  138   130    43 1
  139   131    39 1
  140   132    32 1
  141   133    31 1
  142   134    61 1
  143   135    56 1
  144   136    24 1
  145   137    24 1
  146   139   138 1
  147   140   139 1
  148   141   140 1
  149   142   140 1
  150   143   142 1
  151   144   138 1
  152   144   143 1
  153   145   144 1
  154   146   145 1
  155   147   146 1
  156   148   147 1
  157   149   148 1
  158   150   149 1
  159   151   150 1
  160   152   151 1
  161   153   152 1
  162   154   138 1
  163   155   138 1
  164   156   143 1
  165   157   147 1
  166   158   151 1
  167   160   159 1
  168   161   160 1
  169   162   161 1
  170   163   161 1
  171   164   163 1
  172   165   159 1
  173   165   164 1
  174   166   165 1
  175   167   166 1
  176   168   167 1
  177   169   168 1
  178   170   169 1
  179   171   170 1
  180   172   171 1
  181   173   172 1
  182   174   153 1
  183   174   173 1
  184   175   159 1
  185   176   159 1
  186   177   164 1
  187   178   168 1
  188   179   172 1
  189   180   179 1
  190   181   179 1
  191   182   179 1
  192   183   178 1
  193   184   178 1
  194   185   178 1
  195   186   177 1
  196   187   177 1
  197   188   177 1
  198   189   176 1
  199   190   176 1
  200   191   176 1
  201   192   175 1
  202   193   175 1
  203   194   175 1
  204   195   160 1
  205   196   160 1
  206   197   158 1
  207   198   158 1
  208   199   158 1
  209   200   157 1
  210   201   157 1
  211   202   157 1
  212   203   156 1
  213   204   156 1
  214   205   156 1
  215   206   155 1
  216   207   155 1
  217   208   155 1
  218   209   154 1
  219   210   154 1
  220   211   154 1
  221   212   141 1
  222   213   146 1
  223   214   145 1
  224   215   142 1
  225   216   142 1
  226   217   174 1
  227   218   173 1
  228   219   171 1
  229   220   170 1
  230   221   169 1
  231   222   140 1
  232   223   167 1
  233   224   166 1
  234   225   165 1
  235   226   163 1
  236   227   161 1
  237   228   139 1
  238   229   139 1
  239   230   153 1
  240   231   152 1
  241   232   150 1
  242   233   149 1
  243   234   148 1
  244   235   162 1
  245   65    153 1
  246   65    174 1
@<TRIPOS>SUBSTRUCTURE
      1 CLA               1 ****               0 ****  **** 
      2 LUT             138 ****               0 ****  **** 
