@<TRIPOS>MOLECULE
Cpptraj generated mol2 file.
  235   246     2     0     0
SMALL
USER_CHARGES


@<TRIPOS>ATOM
      1 CAA        78.6455   58.6634   34.6758 a2         1 CLA     -0.055900
      2 CAB        78.6626   62.5082   43.6703 c8         1 CLA     -0.148500
      3 CAC        71.7248   58.2377   43.1595 a2         1 CLA     -0.012600
      4 CAD        74.3650   56.2668   35.7491 ck         1 CLA      0.398800
      5 NA         77.6196   59.0551   38.0372 ns         1 CLA     -0.225500
      6 CBA        79.8542   58.6006   33.7251 a2         1 CLA     -0.135000
      7 CBB        79.7879   63.0085   44.2189 c0         1 CLA     -0.395200
      8 CBC        71.6944   56.7860   43.1159 a3         1 CLA     -0.037700
      9 CBD        75.7784   56.8003   35.4308 a1         1 CLA     -0.053900
     10 NB         77.4226   60.5501   40.6807 nm         1 CLA     -0.295700
     11 OBD        73.8403   55.3311   35.1209 o2         1 CLA     -0.494600
     12 CGA        80.3029   57.1616   33.4542 c4         1 CLA      0.827000
     13 CGD        76.6155   55.4944   35.1124 c4         1 CLA      0.655300
     14 ND         74.7367   58.2075   38.6247 nm         1 CLA     -0.291600
     15 CED        76.9986   53.1931   35.8002 a3         1 CLA      0.005400
     16 CHA        76.1713   57.6823   36.6410 cs         1 CLA     -0.123800
     17 CHB        79.3888   60.2465   39.1972 aa         1 CLA     -0.291900
     18 CHC        76.0993   60.8917   42.6254 aa         1 CLA     -0.090400
     19 CHD        72.8588   58.0973   40.1829 aa         1 CLA     -0.052000
     20 CMA        81.0020   58.0488   37.5171 a3         1 CLA     -0.230700
     21 CMB        80.5743   62.5242   41.1360 a3         1 CLA     -0.180800
     22 CMC        73.8466   60.4340   44.6629 a3         1 CLA     -0.134000
     23 CMD        71.6460   56.1973   37.7624 a3         1 CLA     -0.141100
     24 C1         81.5296   55.3321   34.4337 a2         1 CLA      0.023000
     25 C1A        77.4535   58.2260   36.9259 ac         1 CLA     -0.015100
     26 C1B        78.7628   60.7794   40.3445 cr         1 CLA      0.054700
     27 C1C        74.9502   60.1026   42.3447 cn         1 CLA     -0.005600
     28 C1D        73.3991   57.8530   38.9443 ap         1 CLA     -0.047300
     29 O1A        80.1103   56.5501   32.4128 o2         1 CLA     -0.610800
     30 O1D        77.3029   55.3984   34.0608 o2         1 CLA     -0.558200
     31 C2         82.1998   55.0460   35.7196 c8         1 CLA     -0.325100
     32 C2A        78.7263   58.0939   36.1412 a1         1 CLA      0.098600
     33 C2B        79.3796   61.6863   41.3425 cb         1 CLA      0.088500
     34 C2C        73.8355   59.8178   43.2603 cb         1 CLA      0.053700
     35 C2D        72.9081   57.1277   37.8322 cb         1 CLA      0.058900
     36 O2A        80.9790   56.6860   34.5010 o1         1 CLA     -0.437200
     37 O2D        76.4997   54.5322   36.1227 o1         1 CLA     -0.357600
     38 C3         83.4287   54.3868   35.8986 c5         1 CLA      0.031200
     39 C3A        79.7794   58.8487   37.0217 a1         1 CLA      0.166800
     40 C3B        78.4745   61.7745   42.4053 cb         1 CLA      0.035000
     41 C3C        72.9207   58.9430   42.5801 cb         1 CLA     -0.089900
     42 C3D        73.9773   56.9336   36.9026 cb         1 CLA     -0.035900
     43 C4         83.7004   52.8934   36.0883 a3         1 CLA     -0.053300
     44 C4A        78.9223   59.4356   38.1734 ac         1 CLA      0.001800
     45 C4B        77.2863   60.9878   41.9471 cn         1 CLA     -0.020900
     46 C4C        73.3988   58.8789   41.2446 cr         1 CLA     -0.044400
     47 C4D        75.0558   57.7095   37.4512 c6         1 CLA     -0.046000
     48 C5         84.6329   55.3738   35.7889 a2         1 CLA     -0.070400
     49 C6         84.8501   56.6245   36.6247 a2         1 CLA      0.043900
     50 C7         85.0509   56.1422   38.0685 a2         1 CLA     -0.150000
     51 C8         85.4894   57.2466   39.0932 a1         1 CLA      0.064200
     52 C9         86.7907   57.9746   38.6239 a3         1 CLA     -0.259300
     53 C10        85.7325   56.6685   40.5649 a2         1 CLA     -0.071900
     54 C11        85.7548   57.7390   41.6429 a2         1 CLA      0.014500
     55 C12        86.0864   57.3024   43.0340 a2         1 CLA     -0.112100
     56 C13        86.0796   58.5185   44.0397 a1         1 CLA      0.089200
     57 C14        87.2520   59.5665   43.9409 a3         1 CLA     -0.239100
     58 C15        85.9840   57.9438   45.4927 a2         1 CLA     -0.102200
     59 C16        85.8825   59.0214   46.6099 a2         1 CLA      0.023900
     60 C17        85.4042   58.4902   47.9899 a2         1 CLA     -0.105700
     61 C18        85.7052   59.3738   49.1567 a1         1 CLA      0.206800
     62 C19        85.0958   60.8655   48.9175 a3         1 CLA     -0.280100
     63 C20        85.1244   58.8178   50.4529 a3         1 CLA     -0.280100
     64 NC         74.6950   59.4933   41.1370 nx         1 CLA     -0.309200
     65 MG         76.0644   59.3905   39.6365 mg         1 CLA      0.895000
     66 HMD3       71.7320   55.3055   37.0378 dc         1 CLA      0.064300
     67 HMD2       71.3469   55.8710   38.7567 dc         1 CLA      0.064300
     68 HMD1       70.8277   56.9133   37.3815 dc         1 CLA      0.064300
     69 HMC3       74.2229   59.6821   45.3725 dc         1 CLA      0.052100
     70 HMC2       74.3303   61.4670   44.7963 dc         1 CLA      0.052100
     71 HMC1       72.8161   60.6088   44.9310 dc         1 CLA      0.052100
     72 HMB3       80.3372   63.5039   41.4085 dc         1 CLA      0.063600
     73 HMB2       81.3289   62.0543   41.7817 dc         1 CLA      0.063600
     74 HMB1       80.9451   62.4740   40.1036 dc         1 CLA      0.063600
     75 HMA3       80.7154   57.2697   38.1622 dc         1 CLA      0.058300
     76 HMA2       81.4607   57.5922   36.6670 dc         1 CLA      0.058300
     77 HMA1       81.6658   58.7131   38.0483 dc         1 CLA      0.058300
     78 HED3       77.9686   53.2301   35.3479 dc         1 CLA      0.079300
     79 HED2       77.2627   52.7454   36.7632 dc         1 CLA      0.079300
     80 HED1       76.2356   52.6033   35.2467 dc         1 CLA      0.079300
     81 HBC3       72.5599   56.3643   43.6754 dc         1 CLA      0.016300
     82 HBC2       70.8033   56.3714   43.5373 dc         1 CLA      0.016300
     83 HBC1       71.7598   56.4152   42.1465 dc         1 CLA      0.016300
     84 HBB2       79.7156   63.4475   45.2144 da         1 CLA      0.183000
     85 HBB1       80.8324   62.9583   43.7287 da         1 CLA      0.183000
     86 HBA2       79.6811   59.0698   32.7613 dc         1 CLA      0.029400
     87 HBA1       80.7994   58.9308   34.1066 dc         1 CLA      0.029400
     88 HAC2       71.5306   58.5308   44.1721 dc         1 CLA      0.029300
     89 HAC1       70.9049   58.6109   42.5590 dc         1 CLA      0.029300
     90 HAA2       77.7296   58.1586   34.1647 dc         1 CLA      0.028700
     91 HAA1       78.3976   59.7125   34.7899 dc         1 CLA      0.028700
     92 H203       84.1126   58.4289   50.2183 dc         1 CLA      0.065600
     93 H202       85.7041   58.0242   51.0249 dc         1 CLA      0.065600
     94 H201       85.0427   59.6024   51.2802 dc         1 CLA      0.065600
     95 H193       84.0015   60.6824   48.8050 dc         1 CLA      0.065600
     96 H192       85.2298   61.5658   49.7508 dc         1 CLA      0.065600
     97 H191       85.6299   61.2739   48.0622 dc         1 CLA      0.065600
     98 H172       84.3339   58.3716   47.8978 dc         1 CLA      0.027600
     99 H171       85.7839   57.5127   48.3134 dc         1 CLA      0.027600
    100 H162       86.8534   59.4484   46.7807 dc         1 CLA      0.002900
    101 H161       85.2666   59.7665   46.2733 dc         1 CLA      0.002900
    102 H152       85.0824   57.3518   45.7026 dc         1 CLA      0.029100
    103 H151       86.8801   57.3192   45.6592 dc         1 CLA      0.029100
    104 H143       87.2089   60.2720   44.7271 dc         1 CLA      0.063600
    105 H142       88.0859   59.0113   43.9539 dc         1 CLA      0.063600
    106 H141       87.2602   59.9778   42.9664 dc         1 CLA      0.063600
    107 H122       85.3034   56.5906   43.3988 dc         1 CLA      0.032500
    108 H121       87.0524   56.7110   43.0670 dc         1 CLA      0.032500
    109 H112       86.4963   58.4027   41.3733 dc         1 CLA      0.006600
    110 H111       84.7347   58.1738   41.6242 dc         1 CLA      0.006600
    111 H102       84.9103   55.8953   40.6766 dc         1 CLA      0.024100
    112 H101       86.6869   56.2195   40.5738 dc         1 CLA      0.024100
    113 HHD        71.8666   57.6563   40.2593 da         1 CLA      0.174300
    114 HHC        76.1359   61.3679   43.6163 da         1 CLA      0.136800
    115 HHB        80.4581   60.4077   39.1072 da         1 CLA      0.138300
    116 HBD        75.7218   57.3706   34.5326 dc         1 CLA      0.107700
    117 HAB        77.7503   62.6075   44.1925 da         1 CLA      0.155200
    118 H93        86.7002   58.5900   37.6806 dc         1 CLA      0.069500
    119 H92        87.1330   58.6326   39.4395 dc         1 CLA      0.069500
    120 H91        87.5926   57.2909   38.5591 dc         1 CLA      0.069500
    121 H8         84.6527   57.9306   39.0567 dc         1 CLA      0.029300
    122 H72        84.1097   55.7281   38.4563 dc         1 CLA      0.044400
    123 H71        85.8353   55.3775   38.0505 dc         1 CLA      0.044400
    124 H62        85.7146   57.1078   36.1172 dc         1 CLA      0.015600
    125 H61        83.9924   57.3531   36.5882 dc         1 CLA      0.015600
    126 H52        85.5946   54.7901   35.7322 dc         1 CLA      0.033200
    127 H51        84.7081   55.7525   34.7861 dc         1 CLA      0.033200
    128 H43        83.8488   52.8259   37.1912 dc         1 CLA      0.037000
    129 H42        82.8422   52.3506   35.7980 dc         1 CLA      0.037000
    130 H41        84.5629   52.4839   35.5433 dc         1 CLA      0.037000
    131 H3A        80.0695   59.7662   36.4750 dc         1 CLA      0.041100
    132 H2A        79.1120   57.0918   35.9663 dc         1 CLA      0.083100
    133 H2         81.6639   55.3710   36.5794 da         1 CLA      0.180900
    134 H18        86.8282   59.5239   49.4199 dc         1 CLA     -0.003900
    135 H13        85.1968   59.0359   43.7437 dc         1 CLA      0.019700
    136 H12        80.8203   54.5467   34.1635 dc         1 CLA      0.120400
    137 H11        82.2671   55.4012   33.6788 dc         1 CLA      0.120400
    138 C1         68.8706   61.5622   49.9429 Z1         2 LUT      0.509236
    139 C2         67.5267   61.2808   50.6690 Z2         2 LUT     -0.434695
    140 C3         66.6892   62.5742   51.0093 Z3         2 LUT      0.437453
    141 O3         66.6608   62.7836   52.4459 S1         2 LUT     -0.547129
    142 C4         67.0654   63.7951   50.3548 Z4         2 LUT     -0.468603
    143 C5         67.7071   63.7090   48.9724 Z5         2 LUT      0.279246
    144 C6         68.6361   62.7231   48.7994 Z6         2 LUT     -0.305473
    145 C7         69.0999   62.3148   47.4717 Z7         2 LUT      0.069402
    146 C8         69.9825   63.0196   46.7407 Z8         2 LUT     -0.191631
    147 C9         70.6554   62.6711   45.5171 Z9         2 LUT      0.196698
    148 C10        71.7501   63.4839   45.2475 Y1         2 LUT     -0.208611
    149 C11        72.4370   63.4182   44.0439 Y2         2 LUT      0.030784
    150 C12        73.5264   64.0782   43.6675 Y3         2 LUT     -0.220316
    151 C13        74.2923   64.0684   42.4332 Y4         2 LUT      0.215937
    152 C14        75.5034   64.7754   42.4846 Y5         2 LUT     -0.185793
    153 C15        76.7082   64.6850   41.5164 Y6         2 LUT     -0.057835
    154 C16        69.3408   60.1325   49.5819 Y7         2 LUT     -0.405615
    155 C17        69.8086   62.2052   50.9938 Y7         2 LUT     -0.405615
    156 C18        67.1882   64.7278   47.9969 Y9         2 LUT     -0.369639
    157 C19        69.8687   61.6030   44.7625 W1         2 LUT     -0.333362
    158 C20        73.7027   63.2210   41.3324 W2         2 LUT     -0.323439
    159 C21        87.7647   66.0152   35.4192 Z1         2 LUT      0.406104
    160 C22        88.4741   65.3411   34.2057 Z2         2 LUT     -0.404965
    161 C23        88.7254   66.2844   33.0779 Z3         2 LUT      0.391255
    162 O23        89.0574   65.4613   31.9704 S1         2 LUT     -0.528210
    163 C24        87.5514   67.2090   32.8374 W6         2 LUT     -0.258361
    164 C25        86.4016   67.2736   33.6301 Z5         2 LUT      0.133546
    165 C26        86.3663   66.5437   34.9787 W8         2 LUT     -0.147008
    166 C27        85.6178   67.3103   36.1449 Z7         2 LUT      0.023843
    167 C28        84.3814   67.0653   36.5877 Z8         2 LUT     -0.216987
    168 C29        83.8102   67.5929   37.8523 Z9         2 LUT      0.206524
    169 C30        82.7375   66.8976   38.4024 Y1         2 LUT     -0.215556
    170 C31        82.0192   67.0745   39.6370 Y2         2 LUT      0.025142
    171 C32        80.9968   66.2566   39.8210 Y3         2 LUT     -0.212209
    172 C33        80.0568   66.3004   40.9159 Y4         2 LUT      0.240937
    173 C34        78.9966   65.4006   40.9127 Y5         2 LUT     -0.218862
    174 C35        77.8883   65.3048   41.8379 Y6         2 LUT     -0.023547
    175 C36        88.8093   67.0267   36.0059 Y7         2 LUT     -0.393485
    176 C37        87.6080   64.9238   36.5156 Y7         2 LUT     -0.393485
    177 C38        85.1400   68.1110   33.2503 Y9         2 LUT     -0.387526
    178 C39        84.5018   68.6922   38.5356 W1         2 LUT     -0.322618
    179 C40        80.5751   66.6576   42.2887 W2         2 LUT     -0.358472
    180 H403       81.3948   67.3331   42.1259 R7         2 LUT      0.097720
    181 H402       79.8360   67.2529   42.8854 R7         2 LUT      0.097720
    182 H401       81.0591   65.8027   42.8650 R7         2 LUT      0.097720
    183 H393       85.4677   68.4672   38.9271 R4         2 LUT      0.082505
    184 H392       84.6835   69.4848   37.8153 R4         2 LUT      0.082505
    185 H391       83.9270   69.0872   39.4152 R4         2 LUT      0.082505
    186 H383       84.6452   67.4608   32.5544 R1         2 LUT      0.104030
    187 H382       84.5277   68.3115   34.1506 R1         2 LUT      0.104030
    188 H381       85.3515   69.0259   32.6944 R1         2 LUT      0.104030
    189 H373       86.8431   64.2403   36.2456 T4         2 LUT      0.089537
    190 H372       88.4781   64.2851   36.6159 T4         2 LUT      0.089537
    191 H371       87.3640   65.2526   37.5074 T4         2 LUT      0.089537
    192 H363       88.4967   67.4466   37.0425 T4         2 LUT      0.089537
    193 H362       89.8469   66.6808   36.0866 T4         2 LUT      0.089537
    194 H361       88.8670   67.9296   35.3605 T4         2 LUT      0.089537
    195 H222       89.5200   64.8537   34.4222 U2         2 LUT      0.127376
    196 H221       87.7805   64.6187   33.8671 U2         2 LUT      0.127376
    197 H203       73.1570   62.3451   41.6043 R7         2 LUT      0.087068
    198 H202       72.9498   63.7531   40.7011 R7         2 LUT      0.087068
    199 H201       74.5231   62.9698   40.5833 R7         2 LUT      0.087068
    200 H193       70.4169   61.1694   43.9485 R4         2 LUT      0.089716
    201 H192       69.5729   60.7145   45.3450 R4         2 LUT      0.089716
    202 H191       68.9726   62.1051   44.3073 R4         2 LUT      0.089716
    203 H183       66.1253   64.3658   47.8655 R1         2 LUT      0.094572
    204 H182       67.1988   65.7642   48.4008 R1         2 LUT      0.094572
    205 H181       67.6305   64.5967   47.0003 R1         2 LUT      0.094572
    206 H173       69.8550   61.5904   51.8564 T4         2 LUT      0.093752
    207 H172       70.8322   62.1592   50.6631 T4         2 LUT      0.093752
    208 H171       69.6196   63.2707   51.1432 T4         2 LUT      0.093752
    209 H163       68.6945   59.5357   48.9708 T4         2 LUT      0.093752
    210 H162       70.3122   60.1591   49.1562 T4         2 LUT      0.093752
    211 H161       69.4677   59.5360   50.4540 T4         2 LUT      0.093752
    212 HO3        67.4976   62.8932   52.8821 Q1         2 LUT      0.300121
    213 H8         70.1865   63.9173   47.3004 U7         2 LUT      0.080784
    214 H7         68.8104   61.3231   47.1095 U6         2 LUT      0.042190
    215 H42        66.1250   64.3577   50.2172 U5         2 LUT      0.145166
    216 H41        67.6559   64.3475   50.9835 U5         2 LUT      0.145166
    217 H35        77.9343   65.6917   42.8155 T3         2 LUT      0.077919
    218 H34        78.8103   64.9161   39.9082 T2         2 LUT      0.073626
    219 H32        80.7092   65.5264   39.0209 T1         2 LUT      0.092510
    220 H31        82.3103   67.8930   40.4016 U9         2 LUT      0.070048
    221 H30        82.3491   66.0450   37.7664 U8         2 LUT      0.085442
    222 H3         65.6473   62.5065   50.7198 U3         2 LUT     -0.031596
    223 H28        83.8581   66.4204   35.9718 U7         2 LUT      0.084728
    224 H27        86.1849   67.9874   36.7583 U6         2 LUT      0.087291
    225 H26        85.6836   65.6647   34.8779 Q6         2 LUT      0.075325
    226 H24        87.5963   67.6651   31.8379 Q5         2 LUT      0.094482
    227 H23        89.5749   66.8893   33.3821 U3         2 LUT     -0.024869
    228 H22        66.8986   60.6812   50.0334 U2         2 LUT      0.127376
    229 H21        67.7592   60.6960   51.4806 U2         2 LUT      0.127376
    230 H15        76.5758   64.2393   40.5339 T3         2 LUT      0.093200
    231 H14        75.7436   65.2313   43.4621 T2         2 LUT      0.068865
    232 H12        73.8978   64.7092   44.4921 T1         2 LUT      0.095507
    233 H11        71.9333   62.7446   43.3773 U9         2 LUT      0.068930
    234 H10        71.9883   64.2275   45.9913 U8         2 LUT      0.083911
    235 H1         89.1489   65.9296   31.1216 Q1         2 LUT      0.297311
@<TRIPOS>BOND
    1     6     1 1
    2     7     2 1
    3     8     3 1
    4     9     4 1
    5    11     4 1
    6    12     6 1
    7    13     9 1
    8    16     9 1
    9    25     5 1
   10    25    16 1
   11    26    10 1
   12    26    17 1
   13    27    18 1
   14    28    14 1
   15    28    19 1
   16    29    12 1
   17    30    13 1
   18    31    24 1
   19    32     1 1
   20    32    25 1
   21    33    21 1
   22    33    26 1
   23    34    22 1
   24    34    27 1
   25    35    23 1
   26    35    28 1
   27    36    12 1
   28    36    24 1
   29    37    13 1
   30    37    15 1
   31    38    31 1
   32    39    20 1
   33    39    32 1
   34    40     2 1
   35    40    33 1
   36    41     3 1
   37    41    34 1
   38    42     4 1
   39    42    35 1
   40    43    38 1
   41    44     5 1
   42    44    17 1
   43    44    39 1
   44    45    10 1
   45    45    18 1
   46    45    40 1
   47    46    19 1
   48    46    41 1
   49    47    14 1
   50    47    16 1
   51    47    42 1
   52    48    38 1
   53    49    48 1
   54    50    49 1
   55    51    50 1
   56    52    51 1
   57    53    51 1
   58    54    53 1
   59    55    54 1
   60    56    55 1
   61    57    56 1
   62    58    56 1
   63    59    58 1
   64    60    59 1
   65    61    60 1
   66    62    61 1
   67    63    61 1
   68    64    27 1
   69    64    46 1
   70    65     5 1
   71    65    10 1
   72    65    64 1
   73    65    14 1
   74    66    23 1
   75    67    23 1
   76    68    23 1
   77    69    22 1
   78    70    22 1
   79    71    22 1
   80    72    21 1
   81    73    21 1
   82    74    21 1
   83    75    20 1
   84    76    20 1
   85    77    20 1
   86    78    15 1
   87    79    15 1
   88    80    15 1
   89    81     8 1
   90    82     8 1
   91    83     8 1
   92    84     7 1
   93    85     7 1
   94    86     6 1
   95    87     6 1
   96    88     3 1
   97    89     3 1
   98    90     1 1
   99    91     1 1
  100    92    63 1
  101    93    63 1
  102    94    63 1
  103    95    62 1
  104    96    62 1
  105    97    62 1
  106    98    60 1
  107    99    60 1
  108   100    59 1
  109   101    59 1
  110   102    58 1
  111   103    58 1
  112   104    57 1
  113   105    57 1
  114   106    57 1
  115   107    55 1
  116   108    55 1
  117   109    54 1
  118   110    54 1
  119   111    53 1
  120   112    53 1
  121   113    19 1
  122   114    18 1
  123   115    17 1
  124   116     9 1
  125   117     2 1
  126   118    52 1
  127   119    52 1
  128   120    52 1
  129   121    51 1
  130   122    50 1
  131   123    50 1
  132   124    49 1
  133   125    49 1
  134   126    48 1
  135   127    48 1
  136   128    43 1
  137   129    43 1
  138   130    43 1
  139   131    39 1
  140   132    32 1
  141   133    31 1
  142   134    61 1
  143   135    56 1
  144   136    24 1
  145   137    24 1
  146   139   138 1
  147   140   139 1
  148   141   140 1
  149   142   140 1
  150   143   142 1
  151   144   138 1
  152   144   143 1
  153   145   144 1
  154   146   145 1
  155   147   146 1
  156   148   147 1
  157   149   148 1
  158   150   149 1
  159   151   150 1
  160   152   151 1
  161   153   152 1
  162   154   138 1
  163   155   138 1
  164   156   143 1
  165   157   147 1
  166   158   151 1
  167   160   159 1
  168   161   160 1
  169   162   161 1
  170   163   161 1
  171   164   163 1
  172   165   159 1
  173   165   164 1
  174   166   165 1
  175   167   166 1
  176   168   167 1
  177   169   168 1
  178   170   169 1
  179   171   170 1
  180   172   171 1
  181   173   172 1
  182   174   153 1
  183   174   173 1
  184   175   159 1
  185   176   159 1
  186   177   164 1
  187   178   168 1
  188   179   172 1
  189   180   179 1
  190   181   179 1
  191   182   179 1
  192   183   178 1
  193   184   178 1
  194   185   178 1
  195   186   177 1
  196   187   177 1
  197   188   177 1
  198   189   176 1
  199   190   176 1
  200   191   176 1
  201   192   175 1
  202   193   175 1
  203   194   175 1
  204   195   160 1
  205   196   160 1
  206   197   158 1
  207   198   158 1
  208   199   158 1
  209   200   157 1
  210   201   157 1
  211   202   157 1
  212   203   156 1
  213   204   156 1
  214   205   156 1
  215   206   155 1
  216   207   155 1
  217   208   155 1
  218   209   154 1
  219   210   154 1
  220   211   154 1
  221   212   141 1
  222   213   146 1
  223   214   145 1
  224   215   142 1
  225   216   142 1
  226   217   174 1
  227   218   173 1
  228   219   171 1
  229   220   170 1
  230   221   169 1
  231   222   140 1
  232   223   167 1
  233   224   166 1
  234   225   165 1
  235   226   163 1
  236   227   161 1
  237   228   139 1
  238   229   139 1
  239   230   153 1
  240   231   152 1
  241   232   150 1
  242   233   149 1
  243   234   148 1
  244   235   162 1
  245   65    153 1
  246   65    174 1
@<TRIPOS>SUBSTRUCTURE
      1 CLA               1 ****               0 ****  **** 
      2 LUT             138 ****               0 ****  **** 
