@<TRIPOS>MOLECULE
Cpptraj generated mol2 file.
  235   246     2     0     0
SMALL
USER_CHARGES


@<TRIPOS>ATOM
      1 CAA        79.4077   59.0624   34.2004 a2         1 CLA     -0.055900
      2 CAB        79.4826   62.3678   43.4721 c8         1 CLA     -0.148500
      3 CAC        72.7425   58.0883   42.7222 a2         1 CLA     -0.012600
      4 CAD        75.7344   55.9763   35.3868 ck         1 CLA      0.398800
      5 NA         78.4823   59.1886   37.6553 ns         1 CLA     -0.225500
      6 CBA        80.6655   59.2537   33.3103 a2         1 CLA     -0.135000
      7 CBB        80.5818   62.9434   43.9397 c0         1 CLA     -0.395200
      8 CBC        73.1121   56.6482   43.1546 a3         1 CLA     -0.037700
      9 CBD        77.0233   56.7479   34.9997 a1         1 CLA     -0.053900
     10 NB         78.3223   60.6752   40.3540 nm         1 CLA     -0.295700
     11 OBD        75.3512   55.0494   34.6957 o2         1 CLA     -0.494600
     12 CGA        81.3367   57.9903   32.8362 c4         1 CLA      0.827000
     13 CGD        78.1635   55.7320   34.5293 c4         1 CLA      0.655300
     14 ND         75.8387   58.0650   38.2395 nm         1 CLA     -0.291600
     15 CED        78.8285   53.4356   34.7845 a3         1 CLA      0.005400
     16 CHA        77.3452   57.6173   36.2781 cs         1 CLA     -0.123800
     17 CHB        80.1326   60.6082   38.8010 aa         1 CLA     -0.291900
     18 CHC        76.9065   60.8848   42.3563 aa         1 CLA     -0.090400
     19 CHD        74.0376   57.8131   39.8681 aa         1 CLA     -0.052000
     20 CMA        81.7843   58.6684   37.0601 a3         1 CLA     -0.230700
     21 CMB        81.3962   62.5625   40.7218 a3         1 CLA     -0.180800
     22 CMC        74.7020   60.1392   44.3160 a3         1 CLA     -0.134000
     23 CMD        72.9581   55.7518   37.5919 a3         1 CLA     -0.141100
     24 C1         82.5229   56.0434   33.4938 a2         1 CLA      0.023000
     25 C1A        78.4371   58.3957   36.5440 ac         1 CLA     -0.015100
     26 C1B        79.5724   61.0375   39.9895 cr         1 CLA      0.054700
     27 C1C        75.8507   60.0744   42.0196 cn         1 CLA     -0.005600
     28 C1D        74.6558   57.4703   38.6020 ap         1 CLA     -0.047300
     29 O1A        81.3766   57.5305   31.7022 o2         1 CLA     -0.610800
     30 O1D        78.6888   55.8609   33.4589 o2         1 CLA     -0.558200
     31 C2         83.2001   55.5279   34.8058 c8         1 CLA     -0.325100
     32 C2A        79.6378   58.5624   35.6626 a1         1 CLA      0.098600
     33 C2B        80.1941   61.8057   41.0201 cb         1 CLA      0.088500
     34 C2C        74.7682   59.7384   42.8862 cb         1 CLA      0.053700
     35 C2D        74.2693   56.4314   37.6153 cb         1 CLA      0.058900
     36 O2A        81.8969   57.3429   33.8789 o1         1 CLA     -0.437200
     37 O2D        78.2725   54.6181   35.3447 o1         1 CLA     -0.357600
     38 C3         83.9528   54.4461   34.9773 c5         1 CLA      0.031200
     39 C3A        80.5246   59.4350   36.5604 a1         1 CLA      0.166800
     40 C3B        79.2882   61.8162   42.0818 cb         1 CLA      0.035000
     41 C3C        73.8939   58.8319   42.1496 cb         1 CLA     -0.089900
     42 C3D        75.2409   56.5355   36.6508 cb         1 CLA     -0.035900
     43 C4         83.3386   53.1120   35.3722 a3         1 CLA     -0.053300
     44 C4A        79.6876   59.7738   37.7443 ac         1 CLA      0.001800
     45 C4B        78.0837   61.0773   41.6827 cn         1 CLA     -0.020900
     46 C4C        74.4813   58.7466   40.8560 cr         1 CLA     -0.044400
     47 C4D        76.2182   57.4526   37.1106 c6         1 CLA     -0.046000
     48 C5         85.3933   54.5604   34.5318 a2         1 CLA     -0.070400
     49 C6         86.1880   55.7502   35.1299 a2         1 CLA      0.043900
     50 C7         86.2208   55.5344   36.6628 a2         1 CLA     -0.150000
     51 C8         86.9029   56.6261   37.4841 a1         1 CLA      0.064200
     52 C9         88.4372   56.6768   37.2218 a3         1 CLA     -0.259300
     53 C10        86.4717   56.4921   38.9614 a2         1 CLA     -0.071900
     54 C11        87.0479   57.6010   39.8355 a2         1 CLA      0.014500
     55 C12        86.7323   57.4001   41.3554 a2         1 CLA     -0.112100
     56 C13        86.7622   58.6644   42.3139 a1         1 CLA      0.089200
     57 C14        88.2123   59.2403   42.3871 a3         1 CLA     -0.239100
     58 C15        86.1140   58.1869   43.6507 a2         1 CLA     -0.102200
     59 C16        86.2566   59.1851   44.8063 a2         1 CLA      0.023900
     60 C17        85.5792   58.7102   46.0560 a2         1 CLA     -0.105700
     61 C18        85.5558   59.6104   47.3113 a1         1 CLA      0.206800
     62 C19        84.4014   60.6033   47.2185 a3         1 CLA     -0.280100
     63 C20        85.4538   58.7362   48.6156 a3         1 CLA     -0.280100
     64 NC         75.6353   59.4890   40.7981 nx         1 CLA     -0.309200
     65 MG         76.9316   59.5075   39.1741 mg         1 CLA      0.895000
     66 HMD3       72.0877   56.2688   37.2734 dc         1 CLA      0.064300
     67 HMD2       73.1787   55.0168   36.8257 dc         1 CLA      0.064300
     68 HMD1       72.6857   55.2985   38.5072 dc         1 CLA      0.064300
     69 HMC3       74.6514   61.2325   44.3252 dc         1 CLA      0.052100
     70 HMC2       73.8371   59.7338   44.8555 dc         1 CLA      0.052100
     71 HMC1       75.6099   59.8875   44.8610 dc         1 CLA      0.052100
     72 HMB3       81.2810   63.0907   39.7547 dc         1 CLA      0.063600
     73 HMB2       81.5087   63.4717   41.3270 dc         1 CLA      0.063600
     74 HMB1       82.3048   62.0067   40.8674 dc         1 CLA      0.063600
     75 HMA3       81.4793   57.9086   37.7481 dc         1 CLA      0.058300
     76 HMA2       82.3807   58.3339   36.1913 dc         1 CLA      0.058300
     77 HMA1       82.4016   59.3298   37.7269 dc         1 CLA      0.058300
     78 HED3       79.7552   53.7772   34.3223 dc         1 CLA      0.079300
     79 HED2       79.0553   52.7276   35.5483 dc         1 CLA      0.079300
     80 HED1       78.0667   53.0832   34.0668 dc         1 CLA      0.079300
     81 HBC3       72.1722   56.0534   43.4045 dc         1 CLA      0.016300
     82 HBC2       73.5445   56.1371   42.2842 dc         1 CLA      0.016300
     83 HBC1       73.8709   56.4810   43.8982 dc         1 CLA      0.016300
     84 HBB2       80.6346   63.2605   44.9899 da         1 CLA      0.183000
     85 HBB1       81.5451   62.8432   43.4442 da         1 CLA      0.183000
     86 HBA2       80.4847   59.7742   32.3120 dc         1 CLA      0.029400
     87 HBA1       81.2987   59.9612   33.8516 dc         1 CLA      0.029400
     88 HAC2       72.2549   58.6145   43.6064 dc         1 CLA      0.029300
     89 HAC1       71.9174   57.9724   41.9473 dc         1 CLA      0.029300
     90 HAA2       78.7013   58.3789   33.7129 dc         1 CLA      0.028700
     91 HAA1       78.7666   59.9593   34.2766 dc         1 CLA      0.028700
     92 H203       84.4698   58.1891   48.4946 dc         1 CLA      0.065600
     93 H202       86.2648   58.0218   48.5333 dc         1 CLA      0.065600
     94 H201       85.7112   59.3768   49.4713 dc         1 CLA      0.065600
     95 H193       84.3732   61.3713   48.0674 dc         1 CLA      0.065600
     96 H192       84.4850   61.2756   46.3210 dc         1 CLA      0.065600
     97 H191       83.4800   60.0285   47.0470 dc         1 CLA      0.065600
     98 H172       84.5669   58.4121   45.8750 dc         1 CLA      0.027600
     99 H171       86.0834   57.8777   46.4594 dc         1 CLA      0.027600
    100 H162       87.3041   59.3841   45.1229 dc         1 CLA      0.002900
    101 H161       85.8451   60.0968   44.4461 dc         1 CLA      0.002900
    102 H152       85.0834   57.8874   43.5401 dc         1 CLA      0.029100
    103 H151       86.6495   57.2344   44.0071 dc         1 CLA      0.029100
    104 H143       88.1960   60.1730   42.8772 dc         1 CLA      0.063600
    105 H142       88.8147   58.5794   43.0671 dc         1 CLA      0.063600
    106 H141       88.7535   59.4091   41.4576 dc         1 CLA      0.063600
    107 H122       85.8097   56.8849   41.6075 dc         1 CLA      0.032500
    108 H121       87.5499   56.7476   41.7291 dc         1 CLA      0.032500
    109 H112       88.1901   57.7149   39.6598 dc         1 CLA      0.006600
    110 H111       86.6005   58.4771   39.4915 dc         1 CLA      0.006600
    111 H102       85.3647   56.3609   38.9889 dc         1 CLA      0.024100
    112 H101       86.8056   55.5405   39.3059 dc         1 CLA      0.024100
    113 HHD        73.1465   57.2080   40.1220 da         1 CLA      0.174300
    114 HHC        76.8121   61.2219   43.3663 da         1 CLA      0.136800
    115 HHB        81.2623   60.8333   38.8077 da         1 CLA      0.138300
    116 HBD        76.8011   57.5366   34.2174 dc         1 CLA      0.107700
    117 HAB        78.6080   62.1600   44.1944 da         1 CLA      0.155200
    118 H93        88.8880   56.0288   37.9754 dc         1 CLA      0.069500
    119 H92        88.6250   56.4164   36.1784 dc         1 CLA      0.069500
    120 H91        88.8644   57.6735   37.3892 dc         1 CLA      0.069500
    121 H8         86.4637   57.5542   37.0664 dc         1 CLA      0.029300
    122 H72        85.1611   55.3792   36.9611 dc         1 CLA      0.044400
    123 H71        86.7909   54.5735   36.8651 dc         1 CLA      0.044400
    124 H62        87.2223   55.7680   34.7294 dc         1 CLA      0.015600
    125 H61        85.7176   56.7181   34.8987 dc         1 CLA      0.015600
    126 H52        85.9372   53.6868   34.9002 dc         1 CLA      0.033200
    127 H51        85.3918   54.6731   33.4862 dc         1 CLA      0.033200
    128 H43        83.3208   52.9694   36.4148 dc         1 CLA      0.037000
    129 H42        82.2856   53.0034   35.1693 dc         1 CLA      0.037000
    130 H41        83.8898   52.2818   34.9388 dc         1 CLA      0.037000
    131 H3A        80.6526   60.4287   36.1502 dc         1 CLA      0.041100
    132 H2A        79.9694   57.5427   35.6117 dc         1 CLA      0.083100
    133 H2         83.0898   55.9592   35.7377 da         1 CLA      0.180900
    134 H18        86.4742   60.1243   47.4352 dc         1 CLA     -0.003900
    135 H13        86.1077   59.4422   41.8573 dc         1 CLA      0.019700
    136 H12        81.7210   55.3284   33.2275 dc         1 CLA      0.120400
    137 H11        83.1197   56.1166   32.6307 dc         1 CLA      0.120400
    138 C1         69.5154   61.2241   49.8009 Z1         2 LUT      0.509236
    139 C2         68.1315   60.8597   50.4321 Z2         2 LUT     -0.434695
    140 C3         67.2854   62.0825   50.8911 Z3         2 LUT      0.437453
    141 O3         67.1579   62.0301   52.3467 S1         2 LUT     -0.547129
    142 C4         67.7985   63.4456   50.2419 Z4         2 LUT     -0.468603
    143 C5         68.4663   63.2797   48.9340 Z5         2 LUT      0.279246
    144 C6         69.3746   62.3089   48.7311 Z6         2 LUT     -0.305473
    145 C7         69.7749   61.8632   47.3486 Z7         2 LUT      0.069402
    146 C8         70.4379   62.6257   46.4259 Z8         2 LUT     -0.191631
    147 C9         70.9677   62.1304   45.1661 Z9         2 LUT      0.196698
    148 C10        71.9341   62.9562   44.5496 Y1         2 LUT     -0.208611
    149 C11        72.6328   62.7036   43.3445 Y2         2 LUT      0.030784
    150 C12        73.6233   63.5472   43.0092 Y3         2 LUT     -0.220316
    151 C13        74.5672   63.4108   41.9119 Y4         2 LUT      0.215937
    152 C14        75.6286   64.2632   42.0031 Y5         2 LUT     -0.185793
    153 C15        76.7158   64.4767   41.1527 Y6         2 LUT     -0.057835
    154 C16        70.1520   59.8141   49.4188 Y7         2 LUT     -0.405615
    155 C17        70.2986   61.7724   51.0392 Y7         2 LUT     -0.405615
    156 C18        67.6461   63.8092   47.8154 Y9         2 LUT     -0.369639
    157 C19        70.5805   60.7632   44.7516 W1         2 LUT     -0.333362
    158 C20        74.1543   62.7541   40.6106 W2         2 LUT     -0.323439
    159 C21        88.0909   66.1336   35.1514 Z1         2 LUT      0.406104
    160 C22        88.7888   65.5480   33.9185 Z2         2 LUT     -0.404965
    161 C23        88.9556   66.6137   32.8910 Z3         2 LUT      0.391255
    162 O23        89.8490   66.2177   31.8355 S1         2 LUT     -0.528210
    163 C24        87.6430   67.3044   32.5248 W6         2 LUT     -0.258361
    164 C25        86.6617   67.5110   33.3617 Z5         2 LUT      0.133546
    165 C26        86.6560   66.6609   34.7013 W8         2 LUT     -0.147008
    166 C27        85.8950   67.2346   35.8752 Z7         2 LUT      0.023843
    167 C28        84.7077   66.7277   36.3464 Z8         2 LUT     -0.216987
    168 C29        84.0488   67.1676   37.5713 Z9         2 LUT      0.206524
    169 C30        83.0074   66.3662   37.9489 Y1         2 LUT     -0.215556
    170 C31        82.1913   66.5935   39.0907 Y2         2 LUT      0.025142
    171 C32        81.0680   65.8762   39.3484 Y3         2 LUT     -0.212209
    172 C33        80.1760   65.9357   40.5028 Y4         2 LUT      0.240937
    173 C34        78.9217   65.2978   40.4829 Y5         2 LUT     -0.218862
    174 C35        77.8798   65.1833   41.4318 Y6         2 LUT     -0.023547
    175 C36        88.9240   67.2820   35.7393 Y7         2 LUT     -0.393485
    176 C37        88.0445   64.9767   36.2460 Y7         2 LUT     -0.393485
    177 C38        85.4536   68.3722   32.9762 Y9         2 LUT     -0.387526
    178 C39        84.5031   68.3936   38.3699 W1         2 LUT     -0.322618
    179 C40        80.5493   66.9573   41.5305 W2         2 LUT     -0.358472
    180 H403       80.4656   67.9961   41.1221 R7         2 LUT      0.097720
    181 H402       79.8110   66.8354   42.3621 R7         2 LUT      0.097720
    182 H401       81.5310   66.8216   42.0397 R7         2 LUT      0.097720
    183 H393       83.7590   68.7593   39.0921 R4         2 LUT      0.082505
    184 H392       85.3895   68.2067   39.0344 R4         2 LUT      0.082505
    185 H391       84.7723   69.1982   37.7024 R4         2 LUT      0.082505
    186 H383       84.9124   68.7084   33.9031 R1         2 LUT      0.104030
    187 H382       85.8314   69.3141   32.4691 R1         2 LUT      0.104030
    188 H381       84.8362   67.8578   32.2214 R1         2 LUT      0.104030
    189 H373       87.5159   63.9936   35.9440 T4         2 LUT      0.089537
    190 H372       88.9915   64.6578   36.4423 T4         2 LUT      0.089537
    191 H371       87.6885   65.2428   37.2706 T4         2 LUT      0.089537
    192 H363       89.9562   67.0394   35.7530 T4         2 LUT      0.089537
    193 H362       88.7774   68.1867   35.1269 T4         2 LUT      0.089537
    194 H361       88.6279   67.4763   36.7903 T4         2 LUT      0.089537
    195 H222       89.7957   65.1612   34.1556 U2         2 LUT      0.127376
    196 H221       88.2613   64.7097   33.4537 U2         2 LUT      0.127376
    197 H203       74.7698   61.9564   40.3064 R7         2 LUT      0.087068
    198 H202       73.1603   62.4157   40.6130 R7         2 LUT      0.087068
    199 H201       74.3010   63.4232   39.7241 R7         2 LUT      0.087068
    200 H193       69.4689   60.5317   44.8951 R4         2 LUT      0.089716
    201 H192       70.6164   60.6780   43.7018 R4         2 LUT      0.089716
    202 H191       71.1548   60.0334   45.2494 R4         2 LUT      0.089716
    203 H183       66.7803   63.2313   47.6220 R1         2 LUT      0.094572
    204 H182       67.2530   64.7767   48.1592 R1         2 LUT      0.094572
    205 H181       68.3033   64.0365   46.9793 R1         2 LUT      0.094572
    206 H173       71.2227   61.9323   50.6397 T4         2 LUT      0.093752
    207 H172       69.9635   62.6436   51.5072 T4         2 LUT      0.093752
    208 H171       70.4152   60.9786   51.7935 T4         2 LUT      0.093752
    209 H163       69.5241   59.3021   48.6527 T4         2 LUT      0.093752
    210 H162       71.1620   59.8655   49.0228 T4         2 LUT      0.093752
    211 H161       70.2346   59.1651   50.2436 T4         2 LUT      0.093752
    212 HO3        66.9308   62.8308   52.7654 Q1         2 LUT      0.300121
    213 H8         70.6917   63.6743   46.6128 U7         2 LUT      0.080784
    214 H7         69.4930   60.7856   47.1420 U6         2 LUT      0.042190
    215 H42        66.9830   64.1025   50.2519 U5         2 LUT      0.145166
    216 H41        68.5228   64.0667   50.8761 U5         2 LUT      0.145166
    217 H35        77.9606   65.7571   42.4141 T3         2 LUT      0.077919
    218 H34        78.6769   64.8027   39.5414 T2         2 LUT      0.073626
    219 H32        80.8504   65.1540   38.5683 T1         2 LUT      0.092510
    220 H31        82.6211   67.2509   39.8477 U9         2 LUT      0.070048
    221 H30        82.6900   65.6191   37.2503 U8         2 LUT      0.085442
    222 H3         66.3413   61.8835   50.3794 U3         2 LUT     -0.031596
    223 H28        84.2744   65.9218   35.7876 U7         2 LUT      0.084728
    224 H27        86.4674   68.0671   36.3459 U6         2 LUT      0.087291
    225 H26        86.0387   65.8030   34.3634 Q6         2 LUT      0.075325
    226 H24        87.7160   67.6916   31.5411 Q5         2 LUT      0.094482
    227 H23        89.6497   67.3268   33.2929 U3         2 LUT     -0.024869
    228 H22        67.5228   60.4034   49.6551 U2         2 LUT      0.127376
    229 H21        68.2452   60.0913   51.2334 U2         2 LUT      0.127376
    230 H15        76.6021   63.9919   40.1377 T3         2 LUT      0.093200
    231 H14        75.6992   65.0600   42.7558 T2         2 LUT      0.068865
    232 H12        73.7899   64.4261   43.6405 T1         2 LUT      0.095507
    233 H11        72.4248   61.7423   42.8150 U9         2 LUT      0.068930
    234 H10        72.0671   63.8937   45.1097 U8         2 LUT      0.083911
    235 H1         89.3857   65.7798   31.0967 Q1         2 LUT      0.297311
@<TRIPOS>BOND
    1     6     1 1
    2     7     2 1
    3     8     3 1
    4     9     4 1
    5    11     4 1
    6    12     6 1
    7    13     9 1
    8    16     9 1
    9    25     5 1
   10    25    16 1
   11    26    10 1
   12    26    17 1
   13    27    18 1
   14    28    14 1
   15    28    19 1
   16    29    12 1
   17    30    13 1
   18    31    24 1
   19    32     1 1
   20    32    25 1
   21    33    21 1
   22    33    26 1
   23    34    22 1
   24    34    27 1
   25    35    23 1
   26    35    28 1
   27    36    12 1
   28    36    24 1
   29    37    13 1
   30    37    15 1
   31    38    31 1
   32    39    20 1
   33    39    32 1
   34    40     2 1
   35    40    33 1
   36    41     3 1
   37    41    34 1
   38    42     4 1
   39    42    35 1
   40    43    38 1
   41    44     5 1
   42    44    17 1
   43    44    39 1
   44    45    10 1
   45    45    18 1
   46    45    40 1
   47    46    19 1
   48    46    41 1
   49    47    14 1
   50    47    16 1
   51    47    42 1
   52    48    38 1
   53    49    48 1
   54    50    49 1
   55    51    50 1
   56    52    51 1
   57    53    51 1
   58    54    53 1
   59    55    54 1
   60    56    55 1
   61    57    56 1
   62    58    56 1
   63    59    58 1
   64    60    59 1
   65    61    60 1
   66    62    61 1
   67    63    61 1
   68    64    27 1
   69    64    46 1
   70    65     5 1
   71    65    10 1
   72    65    64 1
   73    65    14 1
   74    66    23 1
   75    67    23 1
   76    68    23 1
   77    69    22 1
   78    70    22 1
   79    71    22 1
   80    72    21 1
   81    73    21 1
   82    74    21 1
   83    75    20 1
   84    76    20 1
   85    77    20 1
   86    78    15 1
   87    79    15 1
   88    80    15 1
   89    81     8 1
   90    82     8 1
   91    83     8 1
   92    84     7 1
   93    85     7 1
   94    86     6 1
   95    87     6 1
   96    88     3 1
   97    89     3 1
   98    90     1 1
   99    91     1 1
  100    92    63 1
  101    93    63 1
  102    94    63 1
  103    95    62 1
  104    96    62 1
  105    97    62 1
  106    98    60 1
  107    99    60 1
  108   100    59 1
  109   101    59 1
  110   102    58 1
  111   103    58 1
  112   104    57 1
  113   105    57 1
  114   106    57 1
  115   107    55 1
  116   108    55 1
  117   109    54 1
  118   110    54 1
  119   111    53 1
  120   112    53 1
  121   113    19 1
  122   114    18 1
  123   115    17 1
  124   116     9 1
  125   117     2 1
  126   118    52 1
  127   119    52 1
  128   120    52 1
  129   121    51 1
  130   122    50 1
  131   123    50 1
  132   124    49 1
  133   125    49 1
  134   126    48 1
  135   127    48 1
  136   128    43 1
  137   129    43 1
  138   130    43 1
  139   131    39 1
  140   132    32 1
  141   133    31 1
  142   134    61 1
  143   135    56 1
  144   136    24 1
  145   137    24 1
  146   139   138 1
  147   140   139 1
  148   141   140 1
  149   142   140 1
  150   143   142 1
  151   144   138 1
  152   144   143 1
  153   145   144 1
  154   146   145 1
  155   147   146 1
  156   148   147 1
  157   149   148 1
  158   150   149 1
  159   151   150 1
  160   152   151 1
  161   153   152 1
  162   154   138 1
  163   155   138 1
  164   156   143 1
  165   157   147 1
  166   158   151 1
  167   160   159 1
  168   161   160 1
  169   162   161 1
  170   163   161 1
  171   164   163 1
  172   165   159 1
  173   165   164 1
  174   166   165 1
  175   167   166 1
  176   168   167 1
  177   169   168 1
  178   170   169 1
  179   171   170 1
  180   172   171 1
  181   173   172 1
  182   174   153 1
  183   174   173 1
  184   175   159 1
  185   176   159 1
  186   177   164 1
  187   178   168 1
  188   179   172 1
  189   180   179 1
  190   181   179 1
  191   182   179 1
  192   183   178 1
  193   184   178 1
  194   185   178 1
  195   186   177 1
  196   187   177 1
  197   188   177 1
  198   189   176 1
  199   190   176 1
  200   191   176 1
  201   192   175 1
  202   193   175 1
  203   194   175 1
  204   195   160 1
  205   196   160 1
  206   197   158 1
  207   198   158 1
  208   199   158 1
  209   200   157 1
  210   201   157 1
  211   202   157 1
  212   203   156 1
  213   204   156 1
  214   205   156 1
  215   206   155 1
  216   207   155 1
  217   208   155 1
  218   209   154 1
  219   210   154 1
  220   211   154 1
  221   212   141 1
  222   213   146 1
  223   214   145 1
  224   215   142 1
  225   216   142 1
  226   217   174 1
  227   218   173 1
  228   219   171 1
  229   220   170 1
  230   221   169 1
  231   222   140 1
  232   223   167 1
  233   224   166 1
  234   225   165 1
  235   226   163 1
  236   227   161 1
  237   228   139 1
  238   229   139 1
  239   230   153 1
  240   231   152 1
  241   232   150 1
  242   233   149 1
  243   234   148 1
  244   235   162 1
  245   65    153 1
  246   65    174 1
@<TRIPOS>SUBSTRUCTURE
      1 CLA               1 ****               0 ****  **** 
      2 LUT             138 ****               0 ****  **** 
