@<TRIPOS>MOLECULE
Cpptraj generated mol2 file.
  235   246     2     0     0
SMALL
USER_CHARGES


@<TRIPOS>ATOM
      1 CAA        79.0741   59.1875   33.1609 a2         1 CLA     -0.055900
      2 CAB        79.1351   62.2717   42.3635 c8         1 CLA     -0.148500
      3 CAC        71.9117   58.0216   41.4810 a2         1 CLA     -0.012600
      4 CAD        74.6699   57.0100   33.8381 ck         1 CLA      0.398800
      5 NA         78.1137   59.0642   36.5897 ns         1 CLA     -0.225500
      6 CBA        80.3627   59.1119   32.3445 a2         1 CLA     -0.135000
      7 CBB        78.2843   62.9009   43.1379 c0         1 CLA     -0.395200
      8 CBC        71.8803   56.4406   41.5287 a3         1 CLA     -0.037700
      9 CBD        76.2096   57.4942   33.5808 a1         1 CLA     -0.053900
     10 NB         77.8562   60.3829   39.3437 nm         1 CLA     -0.295700
     11 OBD        73.9489   56.4165   33.0310 o2         1 CLA     -0.494600
     12 CGA        80.8967   57.7400   31.8356 c4         1 CLA      0.827000
     13 CGD        77.0891   56.3844   33.1831 c4         1 CLA      0.655300
     14 ND         75.1696   58.2344   37.0746 nm         1 CLA     -0.291600
     15 CED        77.6828   54.0719   33.5230 a3         1 CLA      0.005400
     16 CHA        76.6097   58.0471   34.9889 cs         1 CLA     -0.123800
     17 CHB        79.7846   60.4016   37.7130 aa         1 CLA     -0.291900
     18 CHC        76.5642   60.3825   41.4418 aa         1 CLA     -0.090400
     19 CHD        73.3250   58.0049   38.6303 aa         1 CLA     -0.052000
     20 CMA        81.4052   58.3609   35.8172 a3         1 CLA     -0.230700
     21 CMB        81.1126   62.0499   39.8200 a3         1 CLA     -0.180800
     22 CMC        74.0978   59.7602   43.3797 a3         1 CLA     -0.134000
     23 CMD        71.8566   56.6805   35.8395 a3         1 CLA     -0.141100
     24 C1         82.0949   55.7645   32.6352 a2         1 CLA      0.023000
     25 C1A        77.8949   58.4894   35.4115 ac         1 CLA     -0.015100
     26 C1B        79.1717   60.6420   39.0097 cr         1 CLA      0.054700
     27 C1C        75.3440   59.7061   41.0610 cn         1 CLA     -0.005600
     28 C1D        73.9131   57.7931   37.3422 ap         1 CLA     -0.047300
     29 O1A        80.6202   57.1853   30.7705 o2         1 CLA     -0.610800
     30 O1D        77.9039   56.3821   32.2302 o2         1 CLA     -0.558200
     31 C2         82.7017   55.3327   33.9806 c8         1 CLA     -0.325100
     32 C2A        79.2367   58.4560   34.5666 a1         1 CLA      0.098600
     33 C2B        79.8072   61.4093   40.0256 cb         1 CLA      0.088500
     34 C2C        74.1818   59.3569   41.8713 cb         1 CLA      0.053700
     35 C2D        73.2964   57.2223   36.1105 cb         1 CLA      0.058900
     36 O2A        81.7642   57.1743   32.7901 o1         1 CLA     -0.437200
     37 O2D        76.8828   55.2791   33.9773 o1         1 CLA     -0.357600
     38 C3         82.9772   54.0649   34.3563 c5         1 CLA      0.031200
     39 C3A        80.1862   59.2015   35.4789 a1         1 CLA      0.166800
     40 C3B        78.9425   61.4834   41.1176 cb         1 CLA      0.035000
     41 C3C        73.2858   58.6636   41.0555 cb         1 CLA     -0.089900
     42 C3D        74.3457   57.3680   35.1657 cb         1 CLA     -0.035900
     43 C4         81.9266   53.1365   34.9393 a3         1 CLA     -0.053300
     44 C4A        79.3292   59.6002   36.6449 ac         1 CLA      0.001800
     45 C4B        77.7450   60.6993   40.6783 cn         1 CLA     -0.020900
     46 C4C        73.8496   58.6541   39.7332 cr         1 CLA     -0.044400
     47 C4D        75.4406   57.9650   35.7874 c6         1 CLA     -0.046000
     48 C5         84.2983   53.4194   33.9162 a2         1 CLA     -0.070400
     49 C6         85.5253   54.1844   34.3192 a2         1 CLA      0.043900
     50 C7         85.8412   54.1645   35.8263 a2         1 CLA     -0.150000
     51 C8         86.2621   55.6822   36.3065 a1         1 CLA      0.064200
     52 C9         87.8032   55.7828   36.1217 a3         1 CLA     -0.259300
     53 C10        85.7911   55.7864   37.7844 a2         1 CLA     -0.071900
     54 C11        84.3270   55.9804   38.1317 a2         1 CLA      0.014500
     55 C12        84.0545   55.7866   39.6433 a2         1 CLA     -0.112100
     56 C13        82.6593   56.2682   40.1610 a1         1 CLA      0.089200
     57 C14        82.3938   57.8037   40.0450 a3         1 CLA     -0.239100
     58 C15        82.4066   55.7914   41.5932 a2         1 CLA     -0.102200
     59 C16        83.2711   56.5141   42.7703 a2         1 CLA      0.023900
     60 C17        83.0206   55.7758   44.0683 a2         1 CLA     -0.105700
     61 C18        83.8296   56.2924   45.3404 a1         1 CLA      0.206800
     62 C19        83.1983   57.5800   45.8006 a3         1 CLA     -0.280100
     63 C20        83.8745   55.3044   46.5383 a3         1 CLA     -0.280100
     64 NC         75.1255   59.2187   39.8014 nx         1 CLA     -0.309200
     65 MG         76.5098   59.3963   38.1976 mg         1 CLA      0.895000
     66 HMD3       71.4169   56.2386   36.7444 dc         1 CLA      0.064300
     67 HMD2       71.2306   57.5499   35.7392 dc         1 CLA      0.064300
     68 HMD1       71.7343   56.0952   34.9534 dc         1 CLA      0.064300
     69 HMC3       73.1395   59.9231   43.6946 dc         1 CLA      0.052100
     70 HMC2       74.3492   58.8736   43.9458 dc         1 CLA      0.052100
     71 HMC1       74.8196   60.5372   43.5904 dc         1 CLA      0.052100
     72 HMB3       81.3867   62.6148   40.7534 dc         1 CLA      0.063600
     73 HMB2       81.9031   61.2527   39.7236 dc         1 CLA      0.063600
     74 HMB1       81.1482   62.6359   38.9754 dc         1 CLA      0.063600
     75 HMA3       82.1292   58.9415   36.3871 dc         1 CLA      0.058300
     76 HMA2       81.1666   57.3861   36.2143 dc         1 CLA      0.058300
     77 HMA1       81.9983   58.3739   34.9693 dc         1 CLA      0.058300
     78 HED3       77.3405   53.8328   32.4917 dc         1 CLA      0.079300
     79 HED2       78.7379   54.3432   33.6145 dc         1 CLA      0.079300
     80 HED1       77.5383   53.1390   34.0643 dc         1 CLA      0.079300
     81 HBC3       72.7201   56.1188   42.0199 dc         1 CLA      0.016300
     82 HBC2       70.9884   56.0019   41.9850 dc         1 CLA      0.016300
     83 HBC1       71.7866   56.0930   40.4831 dc         1 CLA      0.016300
     84 HBB2       78.5713   63.4613   44.0120 da         1 CLA      0.183000
     85 HBB1       77.1808   62.9789   42.9249 da         1 CLA      0.183000
     86 HBA2       80.3302   59.7853   31.4953 dc         1 CLA      0.029400
     87 HBA1       81.2568   59.4508   32.9288 dc         1 CLA      0.029400
     88 HAC2       71.6601   58.4188   42.4547 dc         1 CLA      0.029300
     89 HAC1       71.1022   58.3499   40.8166 dc         1 CLA      0.029300
     90 HAA2       78.2952   58.7132   32.5836 dc         1 CLA      0.028700
     91 HAA1       78.8491   60.1934   33.2872 dc         1 CLA      0.028700
     92 H203       84.4453   55.6796   47.3644 dc         1 CLA      0.065600
     93 H202       82.8857   55.2581   46.9189 dc         1 CLA      0.065600
     94 H201       84.0831   54.2576   46.2241 dc         1 CLA      0.065600
     95 H193       83.2263   58.2976   44.9939 dc         1 CLA      0.065600
     96 H192       82.1694   57.3948   46.1717 dc         1 CLA      0.065600
     97 H191       83.7718   57.9556   46.6346 dc         1 CLA      0.065600
     98 H172       81.9420   55.8146   44.0854 dc         1 CLA      0.027600
     99 H171       83.2188   54.7744   43.8673 dc         1 CLA      0.027600
    100 H162       84.3473   56.4045   42.6157 dc         1 CLA      0.002900
    101 H161       82.9669   57.5322   42.7248 dc         1 CLA      0.002900
    102 H152       81.3582   55.9270   41.8927 dc         1 CLA      0.029100
    103 H151       82.6285   54.7069   41.5766 dc         1 CLA      0.029100
    104 H143       83.0489   58.3728   40.6476 dc         1 CLA      0.063600
    105 H142       82.4074   58.1153   38.9785 dc         1 CLA      0.063600
    106 H141       81.3132   57.9414   40.2752 dc         1 CLA      0.063600
    107 H122       84.1272   54.7230   39.8203 dc         1 CLA      0.032500
    108 H121       84.8518   56.2782   40.2645 dc         1 CLA      0.032500
    109 H112       83.9414   56.8788   37.7178 dc         1 CLA      0.006600
    110 H111       83.7083   55.2046   37.6549 dc         1 CLA      0.006600
    111 H102       86.1211   54.9109   38.2745 dc         1 CLA      0.024100
    112 H101       86.3983   56.5605   38.3027 dc         1 CLA      0.024100
    113 HHD        72.2589   57.7901   38.7568 da         1 CLA      0.174300
    114 HHC        76.7340   60.7920   42.4220 da         1 CLA      0.136800
    115 HHB        80.8067   60.7481   37.5189 da         1 CLA      0.138300
    116 HBD        76.1639   58.3140   32.8279 dc         1 CLA      0.107700
    117 HAB        80.1448   62.4320   42.6297 da         1 CLA      0.155200
    118 H93        88.1470   55.3859   35.2172 dc         1 CLA      0.069500
    119 H92        88.0618   56.8372   35.9787 dc         1 CLA      0.069500
    120 H91        88.4334   55.3792   36.9519 dc         1 CLA      0.069500
    121 H8         85.6770   56.5007   35.8477 dc         1 CLA      0.029300
    122 H72        84.9373   53.8849   36.3593 dc         1 CLA      0.044400
    123 H71        86.5913   53.4092   36.0663 dc         1 CLA      0.044400
    124 H62        86.4153   53.8028   33.7736 dc         1 CLA      0.015600
    125 H61        85.4124   55.2204   34.0558 dc         1 CLA      0.015600
    126 H52        84.3246   52.5100   34.4809 dc         1 CLA      0.033200
    127 H51        84.3815   53.1551   32.8394 dc         1 CLA      0.033200
    128 H43        80.9251   53.5614   34.6695 dc         1 CLA      0.037000
    129 H42        82.0633   52.0530   34.6108 dc         1 CLA      0.037000
    130 H41        82.0950   53.2250   36.0056 dc         1 CLA      0.037000
    131 H3A        80.5084   60.1060   34.8563 dc         1 CLA      0.041100
    132 H2A        79.5969   57.4151   34.4289 dc         1 CLA      0.083100
    133 H2         82.8108   56.0727   34.7824 da         1 CLA      0.180900
    134 H18        84.8840   56.5382   45.0140 dc         1 CLA     -0.003900
    135 H13        81.9481   55.7837   39.5074 dc         1 CLA      0.019700
    136 H12        81.1269   55.2006   32.5323 dc         1 CLA      0.120400
    137 H11        82.7836   55.5929   31.8020 dc         1 CLA      0.120400
    138 C1         68.8346   60.6197   49.3248 Z1         2 LUT      0.509236
    139 C2         68.6553   61.4259   50.6003 Z2         2 LUT     -0.434695
    140 C3         67.2766   61.9899   50.8512 Z3         2 LUT      0.437453
    141 O3         67.0834   62.6477   52.1455 S1         2 LUT     -0.547129
    142 C4         66.9761   62.9615   49.7488 Z4         2 LUT     -0.468603
    143 C5         67.3349   62.5486   48.4026 Z5         2 LUT      0.279246
    144 C6         68.1260   61.4381   48.1473 Z6         2 LUT     -0.305473
    145 C7         68.5833   61.1210   46.7905 Z7         2 LUT      0.069402
    146 C8         69.4146   61.8638   46.0200 Z8         2 LUT     -0.191631
    147 C9         70.0211   61.4056   44.7223 Z9         2 LUT      0.196698
    148 C10        71.1155   62.1943   44.2273 Y1         2 LUT     -0.208611
    149 C11        71.7422   62.1944   42.9403 Y2         2 LUT      0.030784
    150 C12        72.7792   63.0290   42.6038 Y3         2 LUT     -0.220316
    151 C13        73.6622   62.9902   41.4877 Y4         2 LUT      0.215937
    152 C14        74.8309   63.6906   41.5092 Y5         2 LUT     -0.185793
    153 C15        75.8920   63.6625   40.5468 Y6         2 LUT     -0.057835
    154 C16        68.1275   59.2903   49.3278 Y7         2 LUT     -0.405615
    155 C17        70.3032   60.1723   49.1509 Y7         2 LUT     -0.405615
    156 C18        66.8522   63.6036   47.4007 Y9         2 LUT     -0.369639
    157 C19        69.4103   60.1956   43.9680 W1         2 LUT     -0.333362
    158 C20        73.0785   62.2859   40.3036 W2         2 LUT     -0.323439
    159 C21        86.9839   65.6806   33.8467 Z1         2 LUT      0.406104
    160 C22        87.6002   65.5762   32.4608 Z2         2 LUT     -0.404965
    161 C23        87.6361   66.8774   31.6814 Z3         2 LUT      0.391255
    162 O23        88.3886   66.7038   30.5346 S1         2 LUT     -0.528210
    163 C24        86.3031   67.5285   31.7651 W6         2 LUT     -0.258361
    164 C25        85.3278   67.2625   32.6222 Z5         2 LUT      0.133546
    165 C26        85.4660   66.2470   33.8090 W8         2 LUT     -0.147008
    166 C27        84.8962   66.7174   35.0958 Z7         2 LUT      0.023843
    167 C28        83.8537   66.1331   35.6958 Z8         2 LUT     -0.216987
    168 C29        83.1465   66.6105   36.9129 Z9         2 LUT      0.206524
    169 C30        82.0966   65.8375   37.4252 Y1         2 LUT     -0.215556
    170 C31        81.3644   65.9067   38.5749 Y2         2 LUT      0.025142
    171 C32        80.2474   65.2339   38.8026 Y3         2 LUT     -0.212209
    172 C33        79.3183   65.3002   39.9292 Y4         2 LUT      0.240937
    173 C34        78.1497   64.5806   39.8495 Y5         2 LUT     -0.218862
    174 C35        77.0216   64.5050   40.7134 Y6         2 LUT     -0.023547
    175 C36        87.8137   66.4773   34.8440 Y7         2 LUT     -0.393485
    176 C37        87.0303   64.2135   34.3860 Y7         2 LUT     -0.393485
    177 C38        84.0012   67.9351   32.5586 Y9         2 LUT     -0.387526
    178 C39        83.6331   67.8707   37.6240 W1         2 LUT     -0.322618
    179 C40        79.7985   65.9546   41.1927 W2         2 LUT     -0.358472
    180 H403       78.9527   66.3786   41.7409 R7         2 LUT      0.097720
    181 H402       80.4919   65.2781   41.7501 R7         2 LUT      0.097720
    182 H401       80.4991   66.7216   41.0142 R7         2 LUT      0.097720
    183 H393       84.3931   67.6366   38.3734 R4         2 LUT      0.082505
    184 H392       84.0306   68.5626   36.9044 R4         2 LUT      0.082505
    185 H391       82.8131   68.3741   38.1055 R4         2 LUT      0.082505
    186 H383       83.3177   67.3101   31.9370 R1         2 LUT      0.104030
    187 H382       83.5124   68.0414   33.5525 R1         2 LUT      0.104030
    188 H381       84.0749   68.9721   32.2001 R1         2 LUT      0.104030
    189 H373       86.3036   63.6774   33.7809 T4         2 LUT      0.089537
    190 H372       87.9742   63.7230   34.3244 T4         2 LUT      0.089537
    191 H371       86.7063   64.0531   35.3964 T4         2 LUT      0.089537
    192 H363       88.7667   65.9995   35.0266 T4         2 LUT      0.089537
    193 H362       87.9069   67.5824   34.6295 T4         2 LUT      0.089537
    194 H361       87.3840   66.4408   35.7804 T4         2 LUT      0.089537
    195 H222       88.6124   65.2221   32.5226 U2         2 LUT      0.127376
    196 H221       87.0164   64.8044   31.8965 U2         2 LUT      0.127376
    197 H203       72.2686   62.9125   39.8859 R7         2 LUT      0.087068
    198 H202       73.7274   62.1079   39.4911 R7         2 LUT      0.087068
    199 H201       72.6843   61.3226   40.5572 R7         2 LUT      0.087068
    200 H193       68.3356   60.2485   43.8989 R4         2 LUT      0.089716
    201 H192       69.6845   60.2049   42.9361 R4         2 LUT      0.089716
    202 H191       69.6940   59.1865   44.3322 R4         2 LUT      0.089716
    203 H183       67.6393   64.4146   47.2201 R1         2 LUT      0.094572
    204 H182       66.6197   63.0362   46.4694 R1         2 LUT      0.094572
    205 H181       65.9070   64.0220   47.7878 R1         2 LUT      0.094572
    206 H173       70.5395   59.5309   49.9977 T4         2 LUT      0.093752
    207 H172       70.6272   59.7226   48.1558 T4         2 LUT      0.093752
    208 H171       70.9820   61.0174   49.2370 T4         2 LUT      0.093752
    209 H163       68.5377   58.5665   49.9992 T4         2 LUT      0.093752
    210 H162       67.0964   59.2546   49.6347 T4         2 LUT      0.093752
    211 H161       68.2343   58.8283   48.3460 T4         2 LUT      0.093752
    212 HO3        67.0302   62.0476   52.8684 Q1         2 LUT      0.300121
    213 H8         69.7210   62.8790   46.3430 U7         2 LUT      0.080784
    214 H7         68.3819   60.1176   46.5277 U6         2 LUT      0.042190
    215 H42        65.9004   63.0671   49.7384 U5         2 LUT      0.145166
    216 H41        67.3293   63.9324   50.0708 U5         2 LUT      0.145166
    217 H35        76.9118   65.2064   41.5642 T3         2 LUT      0.077919
    218 H34        77.9951   63.9794   38.9246 T2         2 LUT      0.073626
    219 H32        79.9292   64.6422   37.9635 T1         2 LUT      0.092510
    220 H31        81.7144   66.5752   39.2694 U9         2 LUT      0.070048
    221 H30        81.8950   64.9146   36.9387 U8         2 LUT      0.085442
    222 H3         66.6634   61.0725   50.6343 U3         2 LUT     -0.031596
    223 H28        83.4786   65.2456   35.3157 U7         2 LUT      0.084728
    224 H27        85.3602   67.6083   35.3970 U6         2 LUT      0.087291
    225 H26        84.9152   65.4627   33.3496 Q6         2 LUT      0.075325
    226 H24        86.0618   68.3713   31.1214 Q5         2 LUT      0.094482
    227 H23        88.1845   67.6049   32.2878 U3         2 LUT     -0.024869
    228 H22        68.8742   60.6089   51.3053 U2         2 LUT      0.127376
    229 H21        69.3756   62.2392   50.5290 U2         2 LUT      0.127376
    230 H15        75.8461   63.0709   39.6748 T3         2 LUT      0.093200
    231 H14        75.0849   64.2442   42.4050 T2         2 LUT      0.068865
    232 H12        73.0304   63.8157   43.3306 T1         2 LUT      0.095507
    233 H11        71.3028   61.4940   42.3010 U9         2 LUT      0.068930
    234 H10        71.3583   63.0102   44.9476 U8         2 LUT      0.083911
    235 H1         87.8649   66.5092   29.7388 Q1         2 LUT      0.297311
@<TRIPOS>BOND
    1     6     1 1
    2     7     2 1
    3     8     3 1
    4     9     4 1
    5    11     4 1
    6    12     6 1
    7    13     9 1
    8    16     9 1
    9    25     5 1
   10    25    16 1
   11    26    10 1
   12    26    17 1
   13    27    18 1
   14    28    14 1
   15    28    19 1
   16    29    12 1
   17    30    13 1
   18    31    24 1
   19    32     1 1
   20    32    25 1
   21    33    21 1
   22    33    26 1
   23    34    22 1
   24    34    27 1
   25    35    23 1
   26    35    28 1
   27    36    12 1
   28    36    24 1
   29    37    13 1
   30    37    15 1
   31    38    31 1
   32    39    20 1
   33    39    32 1
   34    40     2 1
   35    40    33 1
   36    41     3 1
   37    41    34 1
   38    42     4 1
   39    42    35 1
   40    43    38 1
   41    44     5 1
   42    44    17 1
   43    44    39 1
   44    45    10 1
   45    45    18 1
   46    45    40 1
   47    46    19 1
   48    46    41 1
   49    47    14 1
   50    47    16 1
   51    47    42 1
   52    48    38 1
   53    49    48 1
   54    50    49 1
   55    51    50 1
   56    52    51 1
   57    53    51 1
   58    54    53 1
   59    55    54 1
   60    56    55 1
   61    57    56 1
   62    58    56 1
   63    59    58 1
   64    60    59 1
   65    61    60 1
   66    62    61 1
   67    63    61 1
   68    64    27 1
   69    64    46 1
   70    65     5 1
   71    65    10 1
   72    65    64 1
   73    65    14 1
   74    66    23 1
   75    67    23 1
   76    68    23 1
   77    69    22 1
   78    70    22 1
   79    71    22 1
   80    72    21 1
   81    73    21 1
   82    74    21 1
   83    75    20 1
   84    76    20 1
   85    77    20 1
   86    78    15 1
   87    79    15 1
   88    80    15 1
   89    81     8 1
   90    82     8 1
   91    83     8 1
   92    84     7 1
   93    85     7 1
   94    86     6 1
   95    87     6 1
   96    88     3 1
   97    89     3 1
   98    90     1 1
   99    91     1 1
  100    92    63 1
  101    93    63 1
  102    94    63 1
  103    95    62 1
  104    96    62 1
  105    97    62 1
  106    98    60 1
  107    99    60 1
  108   100    59 1
  109   101    59 1
  110   102    58 1
  111   103    58 1
  112   104    57 1
  113   105    57 1
  114   106    57 1
  115   107    55 1
  116   108    55 1
  117   109    54 1
  118   110    54 1
  119   111    53 1
  120   112    53 1
  121   113    19 1
  122   114    18 1
  123   115    17 1
  124   116     9 1
  125   117     2 1
  126   118    52 1
  127   119    52 1
  128   120    52 1
  129   121    51 1
  130   122    50 1
  131   123    50 1
  132   124    49 1
  133   125    49 1
  134   126    48 1
  135   127    48 1
  136   128    43 1
  137   129    43 1
  138   130    43 1
  139   131    39 1
  140   132    32 1
  141   133    31 1
  142   134    61 1
  143   135    56 1
  144   136    24 1
  145   137    24 1
  146   139   138 1
  147   140   139 1
  148   141   140 1
  149   142   140 1
  150   143   142 1
  151   144   138 1
  152   144   143 1
  153   145   144 1
  154   146   145 1
  155   147   146 1
  156   148   147 1
  157   149   148 1
  158   150   149 1
  159   151   150 1
  160   152   151 1
  161   153   152 1
  162   154   138 1
  163   155   138 1
  164   156   143 1
  165   157   147 1
  166   158   151 1
  167   160   159 1
  168   161   160 1
  169   162   161 1
  170   163   161 1
  171   164   163 1
  172   165   159 1
  173   165   164 1
  174   166   165 1
  175   167   166 1
  176   168   167 1
  177   169   168 1
  178   170   169 1
  179   171   170 1
  180   172   171 1
  181   173   172 1
  182   174   153 1
  183   174   173 1
  184   175   159 1
  185   176   159 1
  186   177   164 1
  187   178   168 1
  188   179   172 1
  189   180   179 1
  190   181   179 1
  191   182   179 1
  192   183   178 1
  193   184   178 1
  194   185   178 1
  195   186   177 1
  196   187   177 1
  197   188   177 1
  198   189   176 1
  199   190   176 1
  200   191   176 1
  201   192   175 1
  202   193   175 1
  203   194   175 1
  204   195   160 1
  205   196   160 1
  206   197   158 1
  207   198   158 1
  208   199   158 1
  209   200   157 1
  210   201   157 1
  211   202   157 1
  212   203   156 1
  213   204   156 1
  214   205   156 1
  215   206   155 1
  216   207   155 1
  217   208   155 1
  218   209   154 1
  219   210   154 1
  220   211   154 1
  221   212   141 1
  222   213   146 1
  223   214   145 1
  224   215   142 1
  225   216   142 1
  226   217   174 1
  227   218   173 1
  228   219   171 1
  229   220   170 1
  230   221   169 1
  231   222   140 1
  232   223   167 1
  233   224   166 1
  234   225   165 1
  235   226   163 1
  236   227   161 1
  237   228   139 1
  238   229   139 1
  239   230   153 1
  240   231   152 1
  241   232   150 1
  242   233   149 1
  243   234   148 1
  244   235   162 1
  245   65    153 1
  246   65    174 1
@<TRIPOS>SUBSTRUCTURE
      1 CLA               1 ****               0 ****  **** 
      2 LUT             138 ****               0 ****  **** 
