@<TRIPOS>MOLECULE
Cpptraj generated mol2 file.
  235   246     2     0     0
SMALL
USER_CHARGES


@<TRIPOS>ATOM
      1 CAA        80.0336   59.0825   33.6870 a2         1 CLA     -0.055900
      2 CAB        79.1421   62.9560   42.5322 c8         1 CLA     -0.148500
      3 CAC        72.7654   58.2216   41.8882 a2         1 CLA     -0.012600
      4 CAD        76.0954   56.0223   34.7650 ck         1 CLA      0.398800
      5 NA         78.8561   59.3521   37.0953 ns         1 CLA     -0.225500
      6 CBA        81.3402   59.1394   32.8237 a2         1 CLA     -0.135000
      7 CBB        80.1367   63.3260   43.3481 c0         1 CLA     -0.395200
      8 CBC        73.0797   56.7698   42.1849 a3         1 CLA     -0.037700
      9 CBD        77.5226   56.7920   34.5364 a1         1 CLA     -0.053900
     10 NB         78.4952   60.8451   39.6448 nm         1 CLA     -0.295700
     11 OBD        75.6027   55.1171   34.0629 o2         1 CLA     -0.494600
     12 CGA        81.9021   57.7547   32.5164 c4         1 CLA      0.827000
     13 CGD        78.6215   55.8073   34.2786 c4         1 CLA      0.655300
     14 ND         76.1384   58.1160   37.6226 nm         1 CLA     -0.291600
     15 CED        79.6223   53.8683   35.0558 a3         1 CLA      0.005400
     16 CHA        77.7340   57.6883   35.7085 cs         1 CLA     -0.123800
     17 CHB        80.4899   60.9209   38.1521 aa         1 CLA     -0.291900
     18 CHC        76.9527   60.9570   41.6477 aa         1 CLA     -0.090400
     19 CHD        74.2961   57.8200   39.1427 aa         1 CLA     -0.052000
     20 CMA        82.3694   58.9020   36.5814 a3         1 CLA     -0.230700
     21 CMB        81.5081   62.9770   40.1631 a3         1 CLA     -0.180800
     22 CMC        74.5027   60.2292   43.5336 a3         1 CLA     -0.134000
     23 CMD        73.1965   55.7802   36.8532 a3         1 CLA     -0.141100
     24 C1         83.1035   55.9176   33.6279 a2         1 CLA      0.023000
     25 C1A        78.8374   58.5661   35.9431 ac         1 CLA     -0.015100
     26 C1B        79.7550   61.3336   39.2859 cr         1 CLA      0.054700
     27 C1C        75.8657   60.1832   41.2569 cn         1 CLA     -0.005600
     28 C1D        74.9319   57.5214   37.8938 ap         1 CLA     -0.047300
     29 O1A        81.6911   56.9898   31.5640 o2         1 CLA     -0.610800
     30 O1D        79.3042   55.7348   33.3014 o2         1 CLA     -0.558200
     31 C2         83.6591   55.5958   35.0019 c8         1 CLA     -0.325100
     32 C2A        80.2331   58.6015   35.1662 a1         1 CLA      0.098600
     33 C2B        80.2408   62.2057   40.3232 cb         1 CLA      0.088500
     34 C2C        74.7215   59.8667   42.0860 cb         1 CLA      0.053700
     35 C2D        74.5061   56.6108   36.8687 cb         1 CLA      0.058900
     36 O2A        82.6774   57.3121   33.5646 o1         1 CLA     -0.437200
     37 O2D        78.7952   54.9875   35.3938 o1         1 CLA     -0.357600
     38 C3         84.7362   54.8378   35.2589 c5         1 CLA      0.031200
     39 C3A        81.0458   59.6198   36.0616 a1         1 CLA      0.166800
     40 C3B        79.2845   62.1451   41.3293 cb         1 CLA      0.035000
     41 C3C        73.9290   58.9455   41.3434 cb         1 CLA     -0.089900
     42 C3D        75.5932   56.6592   36.0209 cb         1 CLA     -0.035900
     43 C4         84.6495   53.3905   35.6543 a3         1 CLA     -0.053300
     44 C4A        80.1178   59.9509   37.2209 ac         1 CLA      0.001800
     45 C4B        78.2241   61.2345   40.8940 cn         1 CLA     -0.020900
     46 C4C        74.7002   58.6957   40.1478 cr         1 CLA     -0.044400
     47 C4D        76.5821   57.5676   36.5131 c6         1 CLA     -0.046000
     48 C5         86.0844   55.4270   35.2835 a2         1 CLA     -0.070400
     49 C6         86.3489   56.4360   36.4273 a2         1 CLA      0.043900
     50 C7         86.6262   55.8692   37.8264 a2         1 CLA     -0.150000
     51 C8         86.6716   57.0168   38.9224 a1         1 CLA      0.064200
     52 C9         87.7169   58.1015   38.6091 a3         1 CLA     -0.259300
     53 C10        86.8133   56.3787   40.3346 a2         1 CLA     -0.071900
     54 C11        86.8352   57.4395   41.5101 a2         1 CLA      0.014500
     55 C12        86.3984   56.7507   42.7065 a2         1 CLA     -0.112100
     56 C13        86.7642   57.5212   44.0228 a1         1 CLA      0.089200
     57 C14        88.2645   57.4607   44.3176 a3         1 CLA     -0.239100
     58 C15        85.8887   56.9588   45.1981 a2         1 CLA     -0.102200
     59 C16        84.4016   57.4494   45.1758 a2         1 CLA      0.023900
     60 C17        84.2348   58.9339   45.5525 a2         1 CLA     -0.105700
     61 C18        82.6992   59.2628   45.7332 a1         1 CLA      0.206800
     62 C19        82.0794   58.5880   46.9363 a3         1 CLA     -0.280100
     63 C20        82.5372   60.8401   45.7296 a3         1 CLA     -0.280100
     64 NC         75.8168   59.4351   40.1273 nx         1 CLA     -0.309200
     65 MG         77.2536   59.4695   38.4944 mg         1 CLA      0.895000
     66 HMD3       73.0443   54.9500   37.5980 dc         1 CLA      0.064300
     67 HMD2       72.3736   56.4270   36.9739 dc         1 CLA      0.064300
     68 HMD1       73.0894   55.3548   35.9071 dc         1 CLA      0.064300
     69 HMC3       74.6652   59.3163   44.0661 dc         1 CLA      0.052100
     70 HMC2       75.1543   61.0053   43.9600 dc         1 CLA      0.052100
     71 HMC1       73.4768   60.5687   43.6894 dc         1 CLA      0.052100
     72 HMB3       82.2213   62.2020   40.2554 dc         1 CLA      0.063600
     73 HMB2       81.5840   63.4698   39.1858 dc         1 CLA      0.063600
     74 HMB1       81.5631   63.8150   40.9402 dc         1 CLA      0.063600
     75 HMA3       83.0148   58.5779   35.7910 dc         1 CLA      0.058300
     76 HMA2       82.7976   59.6141   37.2686 dc         1 CLA      0.058300
     77 HMA1       82.1033   58.0038   37.0171 dc         1 CLA      0.058300
     78 HED3       79.4393   53.1198   35.7929 dc         1 CLA      0.079300
     79 HED2       79.3845   53.3772   34.1104 dc         1 CLA      0.079300
     80 HED1       80.6643   54.2300   34.9616 dc         1 CLA      0.079300
     81 HBC3       73.4331   56.2693   41.2696 dc         1 CLA      0.016300
     82 HBC2       73.8694   56.7568   42.9224 dc         1 CLA      0.016300
     83 HBC1       72.1541   56.3277   42.5397 dc         1 CLA      0.016300
     84 HBB2       79.9932   63.9190   44.2576 da         1 CLA      0.183000
     85 HBB1       81.1372   62.9432   43.1552 da         1 CLA      0.183000
     86 HBA2       81.1297   59.6007   31.8589 dc         1 CLA      0.029400
     87 HBA1       82.1285   59.6075   33.3960 dc         1 CLA      0.029400
     88 HAC2       72.4159   58.6550   42.8275 dc         1 CLA      0.029300
     89 HAC1       71.8980   58.3254   41.2201 dc         1 CLA      0.029300
     90 HAA2       79.3604   58.4535   33.1600 dc         1 CLA      0.028700
     91 HAA1       79.7223   60.1798   33.7007 dc         1 CLA      0.028700
     92 H203       81.5894   61.2487   46.1313 dc         1 CLA      0.065600
     93 H202       83.2988   61.2999   46.2604 dc         1 CLA      0.065600
     94 H201       82.7135   61.2074   44.7108 dc         1 CLA      0.065600
     95 H193       82.8242   58.7123   47.7149 dc         1 CLA      0.065600
     96 H192       81.1038   59.1017   47.0876 dc         1 CLA      0.065600
     97 H191       81.8651   57.5670   46.7156 dc         1 CLA      0.065600
     98 H172       84.6056   59.1659   46.5515 dc         1 CLA      0.027600
     99 H171       84.7432   59.5926   44.8746 dc         1 CLA      0.027600
    100 H162       83.7590   57.3599   44.2550 dc         1 CLA      0.002900
    101 H161       83.9315   56.8503   45.9020 dc         1 CLA      0.002900
    102 H152       86.0615   55.9076   45.2285 dc         1 CLA      0.029100
    103 H151       86.3483   57.2512   46.1579 dc         1 CLA      0.029100
    104 H143       88.3590   58.0796   45.2138 dc         1 CLA      0.063600
    105 H142       88.5435   56.3963   44.4926 dc         1 CLA      0.063600
    106 H141       88.8584   57.9386   43.6177 dc         1 CLA      0.063600
    107 H122       85.3429   56.4163   42.6195 dc         1 CLA      0.032500
    108 H121       86.8694   55.7726   42.7020 dc         1 CLA      0.032500
    109 H112       87.8403   57.7765   41.4299 dc         1 CLA      0.006600
    110 H111       86.2319   58.3359   41.3326 dc         1 CLA      0.006600
    111 H102       85.8568   55.7875   40.3888 dc         1 CLA      0.024100
    112 H101       87.6663   55.6499   40.3404 dc         1 CLA      0.024100
    113 HHD        73.2488   57.4377   39.3349 da         1 CLA      0.174300
    114 HHC        76.8810   61.5764   42.5355 da         1 CLA      0.136800
    115 HHB        81.5196   61.3290   38.0231 da         1 CLA      0.138300
    116 HBD        77.3154   57.3411   33.6748 dc         1 CLA      0.107700
    117 HAB        78.1762   63.1058   42.9453 da         1 CLA      0.155200
    118 H93        87.6084   58.4885   37.6906 dc         1 CLA      0.069500
    119 H92        87.5835   58.9208   39.3942 dc         1 CLA      0.069500
    120 H91        88.7336   57.7067   38.5031 dc         1 CLA      0.069500
    121 H8         85.7193   57.5068   38.9289 dc         1 CLA      0.029300
    122 H72        85.8802   55.0919   38.1125 dc         1 CLA      0.044400
    123 H71        87.6312   55.3664   37.8409 dc         1 CLA      0.044400
    124 H62        87.1329   57.0680   36.0904 dc         1 CLA      0.015600
    125 H61        85.3956   57.0162   36.5514 dc         1 CLA      0.015600
    126 H52        86.8403   54.6661   35.5016 dc         1 CLA      0.033200
    127 H51        86.2613   56.1179   34.4053 dc         1 CLA      0.033200
    128 H43        85.2746   53.0743   36.4906 dc         1 CLA      0.037000
    129 H42        83.5879   53.1035   35.8044 dc         1 CLA      0.037000
    130 H41        85.0684   52.8028   34.7705 dc         1 CLA      0.037000
    131 H3A        81.2831   60.5956   35.6710 dc         1 CLA      0.041100
    132 H2A        80.7019   57.5496   35.2440 dc         1 CLA      0.083100
    133 H2         83.3960   56.2194   35.8540 da         1 CLA      0.180900
    134 H18        82.2578   58.9962   44.7675 dc         1 CLA     -0.003900
    135 H13        86.5427   58.5367   43.9599 dc         1 CLA      0.019700
    136 H12        82.3036   55.2515   33.4790 dc         1 CLA      0.120400
    137 H11        83.8569   55.7024   32.8728 dc         1 CLA      0.120400
    138 C1         69.6298   61.7584   49.5054 Z1         2 LUT      0.509236
    139 C2         68.1831   61.5155   50.0699 Z2         2 LUT     -0.434695
    140 C3         67.3547   62.8010   50.2784 Z3         2 LUT      0.437453
    141 O3         67.3521   63.0677   51.6674 S1         2 LUT     -0.547129
    142 C4         67.8727   63.9979   49.5018 Z4         2 LUT     -0.468603
    143 C5         68.6030   63.6850   48.2767 Z5         2 LUT      0.279246
    144 C6         69.5054   62.6879   48.2698 Z6         2 LUT     -0.305473
    145 C7         70.0932   62.2713   46.9872 Z7         2 LUT      0.069402
    146 C8         71.0002   62.9952   46.2641 Z8         2 LUT     -0.191631
    147 C9         71.5374   62.6192   44.9504 Z9         2 LUT      0.196698
    148 C10        72.5082   63.4753   44.4358 Y1         2 LUT     -0.208611
    149 C11        73.1104   63.3400   43.1766 Y2         2 LUT      0.030784
    150 C12        74.1463   64.1797   42.8128 Y3         2 LUT     -0.220316
    151 C13        74.9321   64.1423   41.6385 Y4         2 LUT      0.215937
    152 C14        76.0543   64.9381   41.6400 Y5         2 LUT     -0.185793
    153 C15        77.0620   65.0497   40.5773 Y6         2 LUT     -0.057835
    154 C16        70.2371   60.4005   49.2452 Y7         2 LUT     -0.405615
    155 C17        70.4113   62.4473   50.6768 Y7         2 LUT     -0.405615
    156 C18        68.1486   64.5790   47.1494 Y9         2 LUT     -0.369639
    157 C19        70.8726   61.4509   44.2385 W1         2 LUT     -0.333362
    158 C20        74.2665   63.3618   40.4648 W2         2 LUT     -0.323439
    159 C21        88.6812   66.1900   34.7823 Z1         2 LUT      0.406104
    160 C22        89.5785   65.7187   33.6445 Z2         2 LUT     -0.404965
    161 C23        89.4064   66.5782   32.3317 Z3         2 LUT      0.391255
    162 O23        90.2046   66.0474   31.2208 S1         2 LUT     -0.528210
    163 C24        87.9859   67.1330   32.1031 W6         2 LUT     -0.258361
    164 C25        86.9472   67.1363   32.9747 Z5         2 LUT      0.133546
    165 C26        87.1920   66.4193   34.3382 W8         2 LUT     -0.147008
    166 C27        86.3580   67.0306   35.4248 Z7         2 LUT      0.023843
    167 C28        85.1694   66.6712   35.9230 Z8         2 LUT     -0.216987
    168 C29        84.5524   67.2142   37.1904 Z9         2 LUT      0.206524
    169 C30        83.4515   66.4365   37.6143 Y1         2 LUT     -0.215556
    170 C31        82.7455   66.5453   38.8648 Y2         2 LUT      0.025142
    171 C32        81.4539   66.0678   39.0244 Y3         2 LUT     -0.212209
    172 C33        80.5635   66.2581   40.1828 Y4         2 LUT      0.240937
    173 C34        79.3183   65.7146   40.0457 Y5         2 LUT     -0.218862
    174 C35        78.2721   65.6394   40.9094 Y6         2 LUT     -0.023547
    175 C36        89.4290   67.3989   35.4093 Y7         2 LUT     -0.393485
    176 C37        88.7582   65.0593   35.9181 Y7         2 LUT     -0.393485
    177 C38        85.6135   67.6233   32.5648 Y9         2 LUT     -0.387526
    178 C39        85.3148   68.2815   38.0015 W1         2 LUT     -0.322618
    179 C40        81.0772   66.9341   41.4595 W2         2 LUT     -0.358472
    180 H403       80.3192   67.2287   42.1998 R7         2 LUT      0.097720
    181 H402       81.8787   66.3759   41.9393 R7         2 LUT      0.097720
    182 H401       81.5247   67.8685   41.1875 R7         2 LUT      0.097720
    183 H393       85.8773   68.9963   37.4619 R4         2 LUT      0.082505
    184 H392       84.6115   68.7456   38.6816 R4         2 LUT      0.082505
    185 H391       86.0283   67.8091   38.7377 R4         2 LUT      0.082505
    186 H383       85.7831   68.6635   32.3434 R1         2 LUT      0.104030
    187 H382       85.3592   67.1723   31.5875 R1         2 LUT      0.104030
    188 H381       84.7828   67.5044   33.2953 R1         2 LUT      0.104030
    189 H373       89.7650   64.9527   36.3054 T4         2 LUT      0.089537
    190 H372       88.1277   65.2862   36.7819 T4         2 LUT      0.089537
    191 H371       88.5227   64.0835   35.4687 T4         2 LUT      0.089537
    192 H363       89.4765   68.2835   34.7711 T4         2 LUT      0.089537
    193 H362       89.0782   67.6472   36.4072 T4         2 LUT      0.089537
    194 H361       90.4217   66.9727   35.6003 T4         2 LUT      0.089537
    195 H222       90.6055   65.9324   33.7496 U2         2 LUT      0.127376
    196 H221       89.2105   64.7025   33.4078 U2         2 LUT      0.127376
    197 H203       73.2908   63.6491   40.2879 R7         2 LUT      0.087068
    198 H202       74.8729   63.4395   39.5690 R7         2 LUT      0.087068
    199 H201       74.3520   62.3268   40.6826 R7         2 LUT      0.087068
    200 H193       70.8694   61.6233   43.1830 R4         2 LUT      0.089716
    201 H192       71.3140   60.4837   44.3705 R4         2 LUT      0.089716
    202 H191       69.8924   61.1420   44.5235 R4         2 LUT      0.089716
    203 H183       67.0539   64.8590   47.2055 R1         2 LUT      0.094572
    204 H182       68.7551   65.4985   47.0741 R1         2 LUT      0.094572
    205 H181       68.3290   64.0016   46.1444 R1         2 LUT      0.094572
    206 H173       70.2089   61.8395   51.5952 T4         2 LUT      0.093752
    207 H172       71.5015   62.5947   50.5278 T4         2 LUT      0.093752
    208 H171       70.1476   63.5160   50.9194 T4         2 LUT      0.093752
    209 H163       71.1796   60.5781   48.6949 T4         2 LUT      0.093752
    210 H162       70.4147   59.7475   50.0910 T4         2 LUT      0.093752
    211 H161       69.6950   59.7846   48.5084 T4         2 LUT      0.093752
    212 HO3        66.7080   62.5286   52.1350 Q1         2 LUT      0.300121
    213 H8         71.4458   63.8461   46.7488 U7         2 LUT      0.080784
    214 H7         69.6561   61.3515   46.5427 U6         2 LUT      0.042190
    215 H42        67.0239   64.7692   49.3024 U5         2 LUT      0.145166
    216 H41        68.4830   64.7168   50.0623 U5         2 LUT      0.145166
    217 H35        78.3832   65.9849   41.8649 T3         2 LUT      0.077919
    218 H34        79.0572   65.2903   39.0501 T2         2 LUT      0.073626
    219 H32        80.9891   65.5743   38.1043 T1         2 LUT      0.092510
    220 H31        83.2200   67.2008   39.6550 U9         2 LUT      0.070048
    221 H30        83.1097   65.5666   36.9511 U8         2 LUT      0.085442
    222 H3         66.4064   62.5813   49.8582 U3         2 LUT     -0.031596
    223 H28        84.5908   65.9128   35.4618 U7         2 LUT      0.084728
    224 H27        86.9102   67.7691   36.0700 U6         2 LUT      0.087291
    225 H26        86.8411   65.4460   34.1385 Q6         2 LUT      0.075325
    226 H24        87.8765   67.5248   31.0890 Q5         2 LUT      0.094482
    227 H23        89.8878   67.5347   32.6213 U3         2 LUT     -0.024869
    228 H22        67.6172   60.8688   49.3596 U2         2 LUT      0.127376
    229 H21        68.1078   60.9017   50.9578 U2         2 LUT      0.127376
    230 H15        76.9305   64.6897   39.5372 T3         2 LUT      0.093200
    231 H14        76.1793   65.4494   42.5235 T2         2 LUT      0.068865
    232 H12        74.3561   64.9529   43.5752 T1         2 LUT      0.095507
    233 H11        72.7800   62.5205   42.5662 U9         2 LUT      0.068930
    234 H10        72.7066   64.2963   44.9735 U8         2 LUT      0.083911
    235 H1         89.6914   65.9769   30.4060 Q1         2 LUT      0.297311
@<TRIPOS>BOND
    1     6     1 1
    2     7     2 1
    3     8     3 1
    4     9     4 1
    5    11     4 1
    6    12     6 1
    7    13     9 1
    8    16     9 1
    9    25     5 1
   10    25    16 1
   11    26    10 1
   12    26    17 1
   13    27    18 1
   14    28    14 1
   15    28    19 1
   16    29    12 1
   17    30    13 1
   18    31    24 1
   19    32     1 1
   20    32    25 1
   21    33    21 1
   22    33    26 1
   23    34    22 1
   24    34    27 1
   25    35    23 1
   26    35    28 1
   27    36    12 1
   28    36    24 1
   29    37    13 1
   30    37    15 1
   31    38    31 1
   32    39    20 1
   33    39    32 1
   34    40     2 1
   35    40    33 1
   36    41     3 1
   37    41    34 1
   38    42     4 1
   39    42    35 1
   40    43    38 1
   41    44     5 1
   42    44    17 1
   43    44    39 1
   44    45    10 1
   45    45    18 1
   46    45    40 1
   47    46    19 1
   48    46    41 1
   49    47    14 1
   50    47    16 1
   51    47    42 1
   52    48    38 1
   53    49    48 1
   54    50    49 1
   55    51    50 1
   56    52    51 1
   57    53    51 1
   58    54    53 1
   59    55    54 1
   60    56    55 1
   61    57    56 1
   62    58    56 1
   63    59    58 1
   64    60    59 1
   65    61    60 1
   66    62    61 1
   67    63    61 1
   68    64    27 1
   69    64    46 1
   70    65     5 1
   71    65    10 1
   72    65    64 1
   73    65    14 1
   74    66    23 1
   75    67    23 1
   76    68    23 1
   77    69    22 1
   78    70    22 1
   79    71    22 1
   80    72    21 1
   81    73    21 1
   82    74    21 1
   83    75    20 1
   84    76    20 1
   85    77    20 1
   86    78    15 1
   87    79    15 1
   88    80    15 1
   89    81     8 1
   90    82     8 1
   91    83     8 1
   92    84     7 1
   93    85     7 1
   94    86     6 1
   95    87     6 1
   96    88     3 1
   97    89     3 1
   98    90     1 1
   99    91     1 1
  100    92    63 1
  101    93    63 1
  102    94    63 1
  103    95    62 1
  104    96    62 1
  105    97    62 1
  106    98    60 1
  107    99    60 1
  108   100    59 1
  109   101    59 1
  110   102    58 1
  111   103    58 1
  112   104    57 1
  113   105    57 1
  114   106    57 1
  115   107    55 1
  116   108    55 1
  117   109    54 1
  118   110    54 1
  119   111    53 1
  120   112    53 1
  121   113    19 1
  122   114    18 1
  123   115    17 1
  124   116     9 1
  125   117     2 1
  126   118    52 1
  127   119    52 1
  128   120    52 1
  129   121    51 1
  130   122    50 1
  131   123    50 1
  132   124    49 1
  133   125    49 1
  134   126    48 1
  135   127    48 1
  136   128    43 1
  137   129    43 1
  138   130    43 1
  139   131    39 1
  140   132    32 1
  141   133    31 1
  142   134    61 1
  143   135    56 1
  144   136    24 1
  145   137    24 1
  146   139   138 1
  147   140   139 1
  148   141   140 1
  149   142   140 1
  150   143   142 1
  151   144   138 1
  152   144   143 1
  153   145   144 1
  154   146   145 1
  155   147   146 1
  156   148   147 1
  157   149   148 1
  158   150   149 1
  159   151   150 1
  160   152   151 1
  161   153   152 1
  162   154   138 1
  163   155   138 1
  164   156   143 1
  165   157   147 1
  166   158   151 1
  167   160   159 1
  168   161   160 1
  169   162   161 1
  170   163   161 1
  171   164   163 1
  172   165   159 1
  173   165   164 1
  174   166   165 1
  175   167   166 1
  176   168   167 1
  177   169   168 1
  178   170   169 1
  179   171   170 1
  180   172   171 1
  181   173   172 1
  182   174   153 1
  183   174   173 1
  184   175   159 1
  185   176   159 1
  186   177   164 1
  187   178   168 1
  188   179   172 1
  189   180   179 1
  190   181   179 1
  191   182   179 1
  192   183   178 1
  193   184   178 1
  194   185   178 1
  195   186   177 1
  196   187   177 1
  197   188   177 1
  198   189   176 1
  199   190   176 1
  200   191   176 1
  201   192   175 1
  202   193   175 1
  203   194   175 1
  204   195   160 1
  205   196   160 1
  206   197   158 1
  207   198   158 1
  208   199   158 1
  209   200   157 1
  210   201   157 1
  211   202   157 1
  212   203   156 1
  213   204   156 1
  214   205   156 1
  215   206   155 1
  216   207   155 1
  217   208   155 1
  218   209   154 1
  219   210   154 1
  220   211   154 1
  221   212   141 1
  222   213   146 1
  223   214   145 1
  224   215   142 1
  225   216   142 1
  226   217   174 1
  227   218   173 1
  228   219   171 1
  229   220   170 1
  230   221   169 1
  231   222   140 1
  232   223   167 1
  233   224   166 1
  234   225   165 1
  235   226   163 1
  236   227   161 1
  237   228   139 1
  238   229   139 1
  239   230   153 1
  240   231   152 1
  241   232   150 1
  242   233   149 1
  243   234   148 1
  244   235   162 1
  245   65    153 1
  246   65    174 1
@<TRIPOS>SUBSTRUCTURE
      1 CLA               1 ****               0 ****  **** 
      2 LUT             138 ****               0 ****  **** 
