@<TRIPOS>MOLECULE
Cpptraj generated mol2 file.
  235   246     2     0     0
SMALL
USER_CHARGES


@<TRIPOS>ATOM
      1 CAA        77.4163   57.9500   35.4721 a2         1 CLA     -0.055900
      2 CAB        77.6136   62.2189   43.9732 c8         1 CLA     -0.148500
      3 CAC        70.3970   58.2729   43.9295 a2         1 CLA     -0.012600
      4 CAD        73.0348   55.5471   36.6063 ck         1 CLA      0.398800
      5 NA         76.3321   58.4355   38.7439 ns         1 CLA     -0.225500
      6 CBA        78.6801   58.0226   34.5727 a2         1 CLA     -0.135000
      7 CBB        78.8487   62.5813   44.4204 c0         1 CLA     -0.395200
      8 CBC        70.5014   56.7946   44.4144 a3         1 CLA     -0.037700
      9 CBD        74.6350   55.6597   36.5779 a1         1 CLA     -0.053900
     10 NB         76.2472   60.2392   41.1089 nm         1 CLA     -0.295700
     11 OBD        72.3217   54.8605   35.8405 o2         1 CLA     -0.494600
     12 CGA        79.4667   56.7170   34.1167 c4         1 CLA      0.827000
     13 CGD        75.4437   54.4494   36.8746 c4         1 CLA      0.655300
     14 ND         73.4764   57.8278   39.3660 nm         1 CLA     -0.291600
     15 CED        75.4876   52.4389   38.0531 a3         1 CLA      0.005400
     16 CHA        75.0016   56.7863   37.5908 cs         1 CLA     -0.123800
     17 CHB        78.0896   59.9395   39.5439 aa         1 CLA     -0.291900
     18 CHC        74.9110   60.6998   43.1910 aa         1 CLA     -0.090400
     19 CHD        71.6141   57.9100   40.9326 aa         1 CLA     -0.052000
     20 CMA        79.7382   57.4955   38.3913 a3         1 CLA     -0.230700
     21 CMB        79.5881   62.0168   41.3503 a3         1 CLA     -0.180800
     22 CMC        72.6630   59.9241   45.5003 a3         1 CLA     -0.134000
     23 CMD        70.1992   56.1684   38.5899 a3         1 CLA     -0.141100
     24 C1         80.4983   54.6432   34.8932 a2         1 CLA      0.023000
     25 C1A        76.2376   57.4566   37.7313 ac         1 CLA     -0.015100
     26 C1B        77.5020   60.4759   40.6884 cr         1 CLA      0.054700
     27 C1C        73.7681   59.9166   43.0777 cn         1 CLA     -0.005600
     28 C1D        72.1466   57.5844   39.6821 ap         1 CLA     -0.047300
     29 O1A        79.6843   56.4359   32.9383 o2         1 CLA     -0.610800
     30 O1D        76.4664   54.1347   36.2797 o2         1 CLA     -0.558200
     31 C2         80.1851   53.7317   36.0513 c8         1 CLA     -0.325100
     32 C2A        77.5738   57.3508   36.8889 a1         1 CLA      0.098600
     33 C2B        78.1556   61.4331   41.5539 cb         1 CLA      0.088500
     34 C2C        72.6582   59.5695   44.0528 cb         1 CLA      0.053700
     35 C2D        71.5739   56.7662   38.6029 cb         1 CLA      0.058900
     36 O2A        79.7936   55.9133   35.1847 o1         1 CLA     -0.437200
     37 O2D        74.8332   53.7126   37.7855 o1         1 CLA     -0.357600
     38 C3         80.9739   53.0823   36.9873 c5         1 CLA      0.031200
     39 C3A        78.5403   58.2527   37.7407 a1         1 CLA      0.166800
     40 C3B        77.2994   61.5671   42.6754 cb         1 CLA      0.035000
     41 C3C        71.7369   58.7795   43.3749 cb         1 CLA     -0.089900
     42 C3D        72.6683   56.3854   37.7563 cb         1 CLA     -0.035900
     43 C4         81.7306   51.8706   36.5050 a3         1 CLA     -0.053300
     44 C4A        77.5443   58.9388   38.7369 ac         1 CLA      0.001800
     45 C4B        76.0295   60.8900   42.3457 cn         1 CLA     -0.020900
     46 C4C        72.1815   58.6577   42.0096 cr         1 CLA     -0.044400
     47 C4D        73.7536   57.0457   38.2881 c6         1 CLA     -0.046000
     48 C5         81.3016   53.7880   38.3001 a2         1 CLA     -0.070400
     49 C6         82.3647   54.8939   38.0251 a2         1 CLA      0.043900
     50 C7         82.5930   55.5929   39.3861 a2         1 CLA     -0.150000
     51 C8         83.3400   56.9708   39.3866 a1         1 CLA      0.064200
     52 C9         84.7571   56.8825   38.5927 a3         1 CLA     -0.259300
     53 C10        83.6617   57.6493   40.8174 a2         1 CLA     -0.071900
     54 C11        82.3783   58.1356   41.5584 a2         1 CLA      0.014500
     55 C12        82.7026   59.0258   42.7739 a2         1 CLA     -0.112100
     56 C13        83.4674   58.3738   43.9957 a1         1 CLA      0.089200
     57 C14        82.5605   57.3149   44.7151 a3         1 CLA     -0.239100
     58 C15        83.9536   59.4399   45.0105 a2         1 CLA     -0.102200
     59 C16        82.9157   60.3008   45.7535 a2         1 CLA      0.023900
     60 C17        83.4987   61.5706   46.4816 a2         1 CLA     -0.105700
     61 C18        82.4328   62.5467   47.1016 a1         1 CLA      0.206800
     62 C19        81.6493   61.9968   48.3442 a3         1 CLA     -0.280100
     63 C20        83.0181   64.0116   47.3973 a3         1 CLA     -0.280100
     64 NC         73.4567   59.2521   41.8865 nx         1 CLA     -0.309200
     65 MG         74.8468   59.0593   40.1872 mg         1 CLA      0.895000
     66 HMD3       69.8065   55.9213   37.6096 dc         1 CLA      0.064300
     67 HMD2       70.1104   55.2716   39.1835 dc         1 CLA      0.064300
     68 HMD1       69.5570   56.9820   38.8995 dc         1 CLA      0.064300
     69 HMC3       73.4031   60.6445   45.5960 dc         1 CLA      0.052100
     70 HMC2       71.7025   60.4081   45.6202 dc         1 CLA      0.052100
     71 HMC1       72.7111   59.0068   46.0500 dc         1 CLA      0.052100
     72 HMB3       79.5624   63.0413   41.7200 dc         1 CLA      0.063600
     73 HMB2       80.3391   61.3201   41.7638 dc         1 CLA      0.063600
     74 HMB1       79.8213   62.0365   40.2620 dc         1 CLA      0.063600
     75 HMA3       79.3729   56.5229   38.7571 dc         1 CLA      0.058300
     76 HMA2       80.6152   57.4756   37.6925 dc         1 CLA      0.058300
     77 HMA1       79.9857   58.0112   39.3118 dc         1 CLA      0.058300
     78 HED3       76.2638   52.4636   38.7613 dc         1 CLA      0.079300
     79 HED2       74.8122   51.6237   38.3711 dc         1 CLA      0.079300
     80 HED1       75.7704   51.9450   37.1314 dc         1 CLA      0.079300
     81 HBC3       71.3292   56.7058   45.0626 dc         1 CLA      0.016300
     82 HBC2       69.5747   56.4815   44.8922 dc         1 CLA      0.016300
     83 HBC1       70.5166   56.3373   43.4251 dc         1 CLA      0.016300
     84 HBB2       78.9801   63.0602   45.3953 da         1 CLA      0.183000
     85 HBB1       79.8272   62.2737   43.9546 da         1 CLA      0.183000
     86 HBA2       78.3727   58.5369   33.6351 dc         1 CLA      0.029400
     87 HBA1       79.3978   58.6747   35.1497 dc         1 CLA      0.029400
     88 HAC2       70.2097   58.7017   44.8942 dc         1 CLA      0.029300
     89 HAC1       69.5433   58.3864   43.2158 dc         1 CLA      0.029300
     90 HAA2       76.6254   57.3097   35.0240 dc         1 CLA      0.028700
     91 HAA1       77.0089   58.9231   35.5080 dc         1 CLA      0.028700
     92 H203       82.1831   64.6551   47.2937 dc         1 CLA      0.065600
     93 H202       83.5411   64.1592   48.3011 dc         1 CLA      0.065600
     94 H201       83.4892   64.2888   46.4744 dc         1 CLA      0.065600
     95 H193       82.3051   61.6469   49.0895 dc         1 CLA      0.065600
     96 H192       80.9166   62.7688   48.6577 dc         1 CLA      0.065600
     97 H191       81.0310   61.2326   47.8938 dc         1 CLA      0.065600
     98 H172       84.2600   61.3241   47.2229 dc         1 CLA      0.027600
     99 H171       83.9688   62.1567   45.7380 dc         1 CLA      0.027600
    100 H162       82.1729   60.6146   44.9862 dc         1 CLA      0.002900
    101 H161       82.4028   59.6387   46.5158 dc         1 CLA      0.002900
    102 H152       84.4656   58.9438   45.8482 dc         1 CLA      0.029100
    103 H151       84.6073   60.1572   44.5626 dc         1 CLA      0.029100
    104 H143       81.6344   57.7813   45.0888 dc         1 CLA      0.063600
    105 H142       82.2339   56.5140   44.0322 dc         1 CLA      0.063600
    106 H141       83.0947   56.8883   45.6072 dc         1 CLA      0.063600
    107 H122       83.3297   59.8931   42.3540 dc         1 CLA      0.032500
    108 H121       81.8414   59.5608   43.2268 dc         1 CLA      0.032500
    109 H112       81.8234   58.7647   40.8394 dc         1 CLA      0.006600
    110 H111       81.6590   57.4221   41.8751 dc         1 CLA      0.006600
    111 H102       84.3151   56.9871   41.4959 dc         1 CLA      0.024100
    112 H101       84.2010   58.5440   40.5085 dc         1 CLA      0.024100
    113 HHD        70.6551   57.5456   41.2554 da         1 CLA      0.174300
    114 HHC        74.9603   61.2447   44.1206 da         1 CLA      0.136800
    115 HHB        79.0905   60.1998   39.3456 da         1 CLA      0.138300
    116 HBD        74.9554   55.8774   35.5173 dc         1 CLA      0.107700
    117 HAB        76.7326   62.5565   44.5531 da         1 CLA      0.155200
    118 H93        85.4607   56.3741   39.2563 dc         1 CLA      0.069500
    119 H92        84.8066   56.3233   37.6172 dc         1 CLA      0.069500
    120 H91        85.1941   57.8601   38.4806 dc         1 CLA      0.069500
    121 H8         82.7341   57.7812   38.9483 dc         1 CLA      0.029300
    122 H72        81.6666   55.6785   39.8417 dc         1 CLA      0.044400
    123 H71        83.1893   54.9286   40.0074 dc         1 CLA      0.044400
    124 H62        83.3789   54.5305   37.6784 dc         1 CLA      0.015600
    125 H61        82.0596   55.6218   37.2450 dc         1 CLA      0.015600
    126 H52        80.4300   54.2965   38.5027 dc         1 CLA      0.033200
    127 H51        81.6225   53.0731   39.0200 dc         1 CLA      0.033200
    128 H43        81.7953   51.1475   37.3866 dc         1 CLA      0.037000
    129 H42        81.2559   51.2419   35.7679 dc         1 CLA      0.037000
    130 H41        82.6705   52.2976   36.2484 dc         1 CLA      0.037000
    131 H3A        79.0828   59.0462   37.1846 dc         1 CLA      0.041100
    132 H2A        77.9915   56.3495   36.8357 dc         1 CLA      0.083100
    133 H2         79.1459   53.4957   36.1420 da         1 CLA      0.180900
    134 H18        81.5650   62.5654   46.4095 dc         1 CLA     -0.003900
    135 H13        84.3475   57.8889   43.5182 dc         1 CLA      0.019700
    136 H12        80.2195   54.1698   33.9690 dc         1 CLA      0.120400
    137 H11        81.5379   54.7276   34.8999 dc         1 CLA      0.120400
    138 C1         67.1973   61.8887   50.7527 Z1         2 LUT      0.509236
    139 C2         65.8053   61.5866   51.2351 Z2         2 LUT     -0.434695
    140 C3         64.7685   62.6437   51.3434 Z3         2 LUT      0.437453
    141 O3         64.6000   62.9958   52.7351 S1         2 LUT     -0.547129
    142 C4         65.1705   63.9040   50.5649 Z4         2 LUT     -0.468603
    143 C5         66.0203   63.6364   49.4253 Z5         2 LUT      0.279246
    144 C6         66.9563   62.6349   49.4079 Z6         2 LUT     -0.305473
    145 C7         67.3761   62.1039   48.1222 Z7         2 LUT      0.069402
    146 C8         68.3380   62.6950   47.4088 Z8         2 LUT     -0.191631
    147 C9         69.0028   62.2568   46.1861 Z9         2 LUT      0.196698
    148 C10        69.8983   62.9670   45.5265 Y1         2 LUT     -0.208611
    149 C11        70.4789   62.8151   44.2075 Y2         2 LUT      0.030784
    150 C12        71.5714   63.5364   43.8023 Y3         2 LUT     -0.220316
    151 C13        72.4122   63.5366   42.5715 Y4         2 LUT      0.215937
    152 C14        73.5243   64.2843   42.6331 Y5         2 LUT     -0.185793
    153 C15        74.6814   64.3043   41.7064 Y6         2 LUT     -0.057835
    154 C16        67.8949   60.5171   50.4998 Y7         2 LUT     -0.405615
    155 C17        67.8700   62.6711   51.8787 Y7         2 LUT     -0.405615
    156 C18        65.5565   64.2857   48.1687 Y9         2 LUT     -0.369639
    157 C19        68.4962   60.9095   45.7218 W1         2 LUT     -0.333362
    158 C20        71.9368   62.8165   41.4638 W2         2 LUT     -0.323439
    159 C21        85.9275   64.9279   35.6399 Z1         2 LUT      0.406104
    160 C22        86.5470   64.0897   34.4183 Z2         2 LUT     -0.404965
    161 C23        86.9184   65.0174   33.2153 Z3         2 LUT      0.391255
    162 O23        87.2519   64.0505   32.2335 S1         2 LUT     -0.528210
    163 C24        85.7531   65.9045   32.9310 W6         2 LUT     -0.258361
    164 C25        84.7270   66.2661   33.7510 Z5         2 LUT      0.133546
    165 C26        84.6142   65.5347   35.1048 W8         2 LUT     -0.147008
    166 C27        83.9203   66.3412   36.1688 Z7         2 LUT      0.023843
    167 C28        82.9361   65.8262   36.9527 Z8         2 LUT     -0.216987
    168 C29        82.2272   66.3078   38.1177 Z9         2 LUT      0.206524
    169 C30        81.3050   65.5358   38.7368 Y1         2 LUT     -0.215556
    170 C31        80.3207   65.9877   39.8050 Y2         2 LUT      0.025142
    171 C32        79.2066   65.2779   40.0430 Y3         2 LUT     -0.212209
    172 C33        78.0795   65.6621   40.9103 Y4         2 LUT      0.240937
    173 C34        76.9475   64.8919   40.8952 Y5         2 LUT     -0.218862
    174 C35        75.8513   64.9673   41.8768 Y6         2 LUT     -0.023547
    175 C36        87.0057   65.8651   36.1379 Y7         2 LUT     -0.393485
    176 C37        85.5699   63.9298   36.6895 Y7         2 LUT     -0.393485
    177 C38        83.6011   67.1427   33.2509 Y9         2 LUT     -0.387526
    178 C39        82.5768   67.6279   38.6021 W1         2 LUT     -0.322618
    179 C40        78.2182   66.8579   41.7528 W2         2 LUT     -0.358472
    180 H403       78.6161   67.7147   41.2274 R7         2 LUT      0.097720
    181 H402       77.3053   67.1293   42.2758 R7         2 LUT      0.097720
    182 H401       78.8953   66.7245   42.6122 R7         2 LUT      0.097720
    183 H393       83.6105   67.7645   38.3230 R4         2 LUT      0.082505
    184 H392       82.0514   68.4388   38.1941 R4         2 LUT      0.082505
    185 H391       82.4085   67.6230   39.6736 R4         2 LUT      0.082505
    186 H383       82.7875   66.4952   32.8884 R1         2 LUT      0.104030
    187 H382       83.2987   68.0154   33.9064 R1         2 LUT      0.104030
    188 H381       84.0544   67.6812   32.3604 R1         2 LUT      0.104030
    189 H373       85.2847   64.3665   37.7104 T4         2 LUT      0.089537
    190 H372       84.7776   63.3047   36.2289 T4         2 LUT      0.089537
    191 H371       86.3784   63.2819   36.8696 T4         2 LUT      0.089537
    192 H363       87.2850   66.6721   35.3947 T4         2 LUT      0.089537
    193 H362       86.6402   66.4080   37.0341 T4         2 LUT      0.089537
    194 H361       87.9414   65.3257   36.3955 T4         2 LUT      0.089537
    195 H222       87.4336   63.4828   34.5902 U2         2 LUT      0.127376
    196 H221       85.7320   63.3775   34.1172 U2         2 LUT      0.127376
    197 H203       72.1118   61.7399   41.5872 R7         2 LUT      0.087068
    198 H202       70.9211   63.0453   41.1078 R7         2 LUT      0.087068
    199 H201       72.4577   63.0982   40.5732 R7         2 LUT      0.087068
    200 H193       68.9186   60.5942   44.7524 R4         2 LUT      0.089716
    201 H192       68.6389   60.0627   46.4993 R4         2 LUT      0.089716
    202 H191       67.4380   61.0277   45.6626 R4         2 LUT      0.089716
    203 H183       64.4897   64.4785   48.3699 R1         2 LUT      0.094572
    204 H182       66.0654   65.2289   48.1008 R1         2 LUT      0.094572
    205 H181       65.7289   63.7857   47.1863 R1         2 LUT      0.094572
    206 H173       68.9123   62.8439   51.6865 T4         2 LUT      0.093752
    207 H172       67.4479   63.6737   51.9373 T4         2 LUT      0.093752
    208 H171       67.7754   62.1356   52.8255 T4         2 LUT      0.093752
    209 H163       68.2643   59.9821   51.3784 T4         2 LUT      0.093752
    210 H162       67.2433   59.8346   49.8835 T4         2 LUT      0.093752
    211 H161       68.7569   60.6703   49.8066 T4         2 LUT      0.093752
    212 HO3        63.7350   62.6773   52.9737 Q1         2 LUT      0.300121
    213 H8         68.7703   63.6945   47.7759 U7         2 LUT      0.080784
    214 H7         66.9149   61.1639   47.8964 U6         2 LUT      0.042190
    215 H42        64.3009   64.4673   50.3649 U5         2 LUT      0.145166
    216 H41        65.7517   64.5658   51.2301 U5         2 LUT      0.145166
    217 H35        76.0014   65.5805   42.7394 T3         2 LUT      0.077919
    218 H34        76.9025   64.1852   40.1027 T2         2 LUT      0.073626
    219 H32        78.9752   64.4568   39.4685 T1         2 LUT      0.092510
    220 H31        80.4610   66.8542   40.4218 U9         2 LUT      0.070048
    221 H30        81.1221   64.5513   38.2859 U8         2 LUT      0.085442
    222 H3         63.9238   62.1699   50.7918 U3         2 LUT     -0.031596
    223 H28        82.5616   64.8216   36.6835 U7         2 LUT      0.084728
    224 H27        84.2218   67.3292   36.2926 U6         2 LUT      0.087291
    225 H26        83.9012   64.7078   34.8412 Q6         2 LUT      0.075325
    226 H24        85.8409   66.2765   31.8929 Q5         2 LUT      0.094482
    227 H23        87.7885   65.5829   33.5418 U3         2 LUT     -0.024869
    228 H22        65.3002   60.9438   50.4712 U2         2 LUT      0.127376
    229 H21        65.8322   60.9308   52.0893 U2         2 LUT      0.127376
    230 H15        74.5443   63.6748   40.8052 T3         2 LUT      0.093200
    231 H14        73.8770   64.8770   43.5946 T2         2 LUT      0.068865
    232 H12        71.9790   64.1757   44.5960 T1         2 LUT      0.095507
    233 H11        70.1038   62.1759   43.3031 U9         2 LUT      0.068930
    234 H10        70.1610   63.8794   46.0127 U8         2 LUT      0.083911
    235 H1         87.4780   64.4540   31.3915 Q1         2 LUT      0.297311
@<TRIPOS>BOND
    1     6     1 1
    2     7     2 1
    3     8     3 1
    4     9     4 1
    5    11     4 1
    6    12     6 1
    7    13     9 1
    8    16     9 1
    9    25     5 1
   10    25    16 1
   11    26    10 1
   12    26    17 1
   13    27    18 1
   14    28    14 1
   15    28    19 1
   16    29    12 1
   17    30    13 1
   18    31    24 1
   19    32     1 1
   20    32    25 1
   21    33    21 1
   22    33    26 1
   23    34    22 1
   24    34    27 1
   25    35    23 1
   26    35    28 1
   27    36    12 1
   28    36    24 1
   29    37    13 1
   30    37    15 1
   31    38    31 1
   32    39    20 1
   33    39    32 1
   34    40     2 1
   35    40    33 1
   36    41     3 1
   37    41    34 1
   38    42     4 1
   39    42    35 1
   40    43    38 1
   41    44     5 1
   42    44    17 1
   43    44    39 1
   44    45    10 1
   45    45    18 1
   46    45    40 1
   47    46    19 1
   48    46    41 1
   49    47    14 1
   50    47    16 1
   51    47    42 1
   52    48    38 1
   53    49    48 1
   54    50    49 1
   55    51    50 1
   56    52    51 1
   57    53    51 1
   58    54    53 1
   59    55    54 1
   60    56    55 1
   61    57    56 1
   62    58    56 1
   63    59    58 1
   64    60    59 1
   65    61    60 1
   66    62    61 1
   67    63    61 1
   68    64    27 1
   69    64    46 1
   70    65     5 1
   71    65    10 1
   72    65    64 1
   73    65    14 1
   74    66    23 1
   75    67    23 1
   76    68    23 1
   77    69    22 1
   78    70    22 1
   79    71    22 1
   80    72    21 1
   81    73    21 1
   82    74    21 1
   83    75    20 1
   84    76    20 1
   85    77    20 1
   86    78    15 1
   87    79    15 1
   88    80    15 1
   89    81     8 1
   90    82     8 1
   91    83     8 1
   92    84     7 1
   93    85     7 1
   94    86     6 1
   95    87     6 1
   96    88     3 1
   97    89     3 1
   98    90     1 1
   99    91     1 1
  100    92    63 1
  101    93    63 1
  102    94    63 1
  103    95    62 1
  104    96    62 1
  105    97    62 1
  106    98    60 1
  107    99    60 1
  108   100    59 1
  109   101    59 1
  110   102    58 1
  111   103    58 1
  112   104    57 1
  113   105    57 1
  114   106    57 1
  115   107    55 1
  116   108    55 1
  117   109    54 1
  118   110    54 1
  119   111    53 1
  120   112    53 1
  121   113    19 1
  122   114    18 1
  123   115    17 1
  124   116     9 1
  125   117     2 1
  126   118    52 1
  127   119    52 1
  128   120    52 1
  129   121    51 1
  130   122    50 1
  131   123    50 1
  132   124    49 1
  133   125    49 1
  134   126    48 1
  135   127    48 1
  136   128    43 1
  137   129    43 1
  138   130    43 1
  139   131    39 1
  140   132    32 1
  141   133    31 1
  142   134    61 1
  143   135    56 1
  144   136    24 1
  145   137    24 1
  146   139   138 1
  147   140   139 1
  148   141   140 1
  149   142   140 1
  150   143   142 1
  151   144   138 1
  152   144   143 1
  153   145   144 1
  154   146   145 1
  155   147   146 1
  156   148   147 1
  157   149   148 1
  158   150   149 1
  159   151   150 1
  160   152   151 1
  161   153   152 1
  162   154   138 1
  163   155   138 1
  164   156   143 1
  165   157   147 1
  166   158   151 1
  167   160   159 1
  168   161   160 1
  169   162   161 1
  170   163   161 1
  171   164   163 1
  172   165   159 1
  173   165   164 1
  174   166   165 1
  175   167   166 1
  176   168   167 1
  177   169   168 1
  178   170   169 1
  179   171   170 1
  180   172   171 1
  181   173   172 1
  182   174   153 1
  183   174   173 1
  184   175   159 1
  185   176   159 1
  186   177   164 1
  187   178   168 1
  188   179   172 1
  189   180   179 1
  190   181   179 1
  191   182   179 1
  192   183   178 1
  193   184   178 1
  194   185   178 1
  195   186   177 1
  196   187   177 1
  197   188   177 1
  198   189   176 1
  199   190   176 1
  200   191   176 1
  201   192   175 1
  202   193   175 1
  203   194   175 1
  204   195   160 1
  205   196   160 1
  206   197   158 1
  207   198   158 1
  208   199   158 1
  209   200   157 1
  210   201   157 1
  211   202   157 1
  212   203   156 1
  213   204   156 1
  214   205   156 1
  215   206   155 1
  216   207   155 1
  217   208   155 1
  218   209   154 1
  219   210   154 1
  220   211   154 1
  221   212   141 1
  222   213   146 1
  223   214   145 1
  224   215   142 1
  225   216   142 1
  226   217   174 1
  227   218   173 1
  228   219   171 1
  229   220   170 1
  230   221   169 1
  231   222   140 1
  232   223   167 1
  233   224   166 1
  234   225   165 1
  235   226   163 1
  236   227   161 1
  237   228   139 1
  238   229   139 1
  239   230   153 1
  240   231   152 1
  241   232   150 1
  242   233   149 1
  243   234   148 1
  244   235   162 1
  245   65    153 1
  246   65    174 1
@<TRIPOS>SUBSTRUCTURE
      1 CLA               1 ****               0 ****  **** 
      2 LUT             138 ****               0 ****  **** 
