@<TRIPOS>MOLECULE
Cpptraj generated mol2 file.
  235   246     2     0     0
SMALL
USER_CHARGES


@<TRIPOS>ATOM
      1 CAA        79.6504   58.5774   33.6930 a2         1 CLA     -0.055900
      2 CAB        79.2781   62.3026   42.7824 c8         1 CLA     -0.148500
      3 CAC        72.3223   58.4038   41.7354 a2         1 CLA     -0.012600
      4 CAD        75.1409   56.4479   34.5681 ck         1 CLA      0.398800
      5 NA         78.3399   59.2247   36.9165 ns         1 CLA     -0.225500
      6 CBA        81.0132   58.2797   33.0731 a2         1 CLA     -0.135000
      7 CBB        80.1602   63.2757   43.0694 c0         1 CLA     -0.395200
      8 CBC        72.7606   57.1176   42.4476 a3         1 CLA     -0.037700
      9 CBD        76.6863   56.7613   34.3705 a1         1 CLA     -0.053900
     10 NB         78.1187   60.6799   39.5987 nm         1 CLA     -0.295700
     11 OBD        74.4281   55.7317   33.8997 o2         1 CLA     -0.494600
     12 CGA        81.3824   56.7903   32.9645 c4         1 CLA      0.827000
     13 CGD        77.5601   55.5482   34.3526 c4         1 CLA      0.655300
     14 ND         75.5287   58.4105   37.4237 nm         1 CLA     -0.291600
     15 CED        78.4543   53.7557   35.8088 a3         1 CLA      0.005400
     16 CHA        77.0836   57.7055   35.5139 cs         1 CLA     -0.123800
     17 CHB        80.0813   60.5610   38.0759 aa         1 CLA     -0.291900
     18 CHC        76.7960   60.7158   41.7127 aa         1 CLA     -0.090400
     19 CHD        73.6370   58.3505   38.9092 aa         1 CLA     -0.052000
     20 CMA        81.7192   58.3542   36.6274 a3         1 CLA     -0.230700
     21 CMB        81.4890   62.1403   40.2023 a3         1 CLA     -0.180800
     22 CMC        74.3509   60.1517   43.6154 a3         1 CLA     -0.134000
     23 CMD        72.3470   56.4158   36.6956 a3         1 CLA     -0.141100
     24 C1         82.5037   54.8773   33.9718 a2         1 CLA      0.023000
     25 C1A        78.3147   58.3077   35.8727 ac         1 CLA     -0.015100
     26 C1B        79.4798   61.0066   39.2800 cr         1 CLA      0.054700
     27 C1C        75.6149   60.0817   41.2904 cn         1 CLA     -0.005600
     28 C1D        74.2009   57.9861   37.6978 ap         1 CLA     -0.047300
     29 O1A        80.9794   56.0724   32.0780 o2         1 CLA     -0.610800
     30 O1D        78.1782   55.0908   33.4149 o2         1 CLA     -0.558200
     31 C2         83.3286   54.4722   35.2156 c8         1 CLA     -0.325100
     32 C2A        79.6480   58.2641   35.1852 a1         1 CLA      0.098600
     33 C2B        80.1239   61.6909   40.3602 cb         1 CLA      0.088500
     34 C2C        74.4738   59.8285   42.1557 cb         1 CLA      0.053700
     35 C2D        73.6644   57.1343   36.7232 cb         1 CLA      0.058900
     36 O2A        82.0889   56.3378   34.0753 o1         1 CLA     -0.437200
     37 O2D        77.7363   55.0086   35.6252 o1         1 CLA     -0.357600
     38 C3         84.3802   53.5859   35.3110 c5         1 CLA      0.031200
     39 C3A        80.5737   59.1640   36.0240 a1         1 CLA      0.166800
     40 C3B        79.1689   61.6735   41.4350 cb         1 CLA      0.035000
     41 C3C        73.5888   59.1387   41.3143 cb         1 CLA     -0.089900
     42 C3D        74.7283   57.0817   35.7834 cb         1 CLA     -0.035900
     43 C4         84.1295   52.1599   35.8493 a3         1 CLA     -0.053300
     44 C4A        79.6103   59.7022   37.0786 ac         1 CLA      0.001800
     45 C4B        77.9300   60.9768   40.9703 cn         1 CLA     -0.020900
     46 C4C        74.1395   59.0981   39.9767 cr         1 CLA     -0.044400
     47 C4D        75.8743   57.8018   36.2309 c6         1 CLA     -0.046000
     48 C5         85.8285   54.0260   34.9827 a2         1 CLA     -0.070400
     49 C6         86.3187   55.3725   35.5826 a2         1 CLA      0.043900
     50 C7         86.5905   55.1670   37.0473 a2         1 CLA     -0.150000
     51 C8         86.5431   56.4658   38.0026 a1         1 CLA      0.064200
     52 C9         87.6351   57.5125   37.5526 a3         1 CLA     -0.259300
     53 C10        86.6493   55.9992   39.5232 a2         1 CLA     -0.071900
     54 C11        86.4879   57.1701   40.5398 a2         1 CLA      0.014500
     55 C12        86.1562   56.5642   41.9253 a2         1 CLA     -0.112100
     56 C13        86.3304   57.5419   43.1145 a1         1 CLA      0.089200
     57 C14        87.6998   57.3568   43.8678 a3         1 CLA     -0.239100
     58 C15        85.1513   57.4287   44.0639 a2         1 CLA     -0.102200
     59 C16        83.8531   58.0508   43.5814 a2         1 CLA      0.023900
     60 C17        82.6636   57.7465   44.5876 a2         1 CLA     -0.105700
     61 C18        81.2256   58.3603   44.2052 a1         1 CLA      0.206800
     62 C19        80.1966   57.8667   45.2281 a3         1 CLA     -0.280100
     63 C20        81.1731   59.8862   44.0313 a3         1 CLA     -0.280100
     64 NC         75.3499   59.7574   40.0029 nx         1 CLA     -0.309200
     65 MG         76.8413   59.5902   38.4080 mg         1 CLA      0.895000
     66 HMD3       71.4457   57.0313   36.4236 dc         1 CLA      0.064300
     67 HMD2       72.4898   55.7466   35.8713 dc         1 CLA      0.064300
     68 HMD1       72.2361   55.8620   37.6216 dc         1 CLA      0.064300
     69 HMC3       73.9970   61.1541   43.4966 dc         1 CLA      0.052100
     70 HMC2       73.5748   59.6697   44.1614 dc         1 CLA      0.052100
     71 HMC1       75.3142   60.0796   44.0913 dc         1 CLA      0.052100
     72 HMB3       82.1603   61.3101   39.9038 dc         1 CLA      0.063600
     73 HMB2       81.4603   62.8899   39.3700 dc         1 CLA      0.063600
     74 HMB1       81.9153   62.5327   41.0954 dc         1 CLA      0.063600
     75 HMA3       81.3837   57.5613   37.3091 dc         1 CLA      0.058300
     76 HMA2       82.2676   57.8672   35.8311 dc         1 CLA      0.058300
     77 HMA1       82.3226   59.0351   37.0728 dc         1 CLA      0.058300
     78 HED3       78.2597   53.4232   36.8143 dc         1 CLA      0.079300
     79 HED2       78.2153   52.9028   35.1879 dc         1 CLA      0.079300
     80 HED1       79.5857   53.7813   35.7502 dc         1 CLA      0.079300
     81 HBC3       73.3668   57.3131   43.3541 dc         1 CLA      0.016300
     82 HBC2       71.9325   56.4836   42.7982 dc         1 CLA      0.016300
     83 HBC1       73.4034   56.5565   41.7345 dc         1 CLA      0.016300
     84 HBB2       80.2693   63.6007   44.0479 da         1 CLA      0.183000
     85 HBB1       80.7914   63.7951   42.3135 da         1 CLA      0.183000
     86 HBA2       80.9140   58.6808   32.1050 dc         1 CLA      0.029400
     87 HBA1       81.7908   58.8149   33.6575 dc         1 CLA      0.029400
     88 HAC2       71.7442   59.0887   42.4077 dc         1 CLA      0.029300
     89 HAC1       71.7228   58.1581   40.7995 dc         1 CLA      0.029300
     90 HAA2       78.9482   57.8542   33.3253 dc         1 CLA      0.028700
     91 HAA1       79.3689   59.5898   33.5460 dc         1 CLA      0.028700
     92 H203       81.7789   60.1816   43.2072 dc         1 CLA      0.065600
     93 H202       80.1108   60.2310   43.9458 dc         1 CLA      0.065600
     94 H201       81.5637   60.3753   44.8918 dc         1 CLA      0.065600
     95 H193       79.1901   58.3132   45.2388 dc         1 CLA      0.065600
     96 H192       79.9996   56.8015   45.1178 dc         1 CLA      0.065600
     97 H191       80.5663   57.9811   46.2417 dc         1 CLA      0.065600
     98 H172       82.7044   56.6516   44.6869 dc         1 CLA      0.027600
     99 H171       82.9001   58.1846   45.5666 dc         1 CLA      0.027600
    100 H162       83.9898   59.0809   43.3034 dc         1 CLA      0.002900
    101 H161       83.5255   57.4229   42.7286 dc         1 CLA      0.002900
    102 H152       85.0239   56.4469   44.4674 dc         1 CLA      0.029100
    103 H151       85.4306   57.9995   44.9447 dc         1 CLA      0.029100
    104 H143       87.7760   57.9878   44.6844 dc         1 CLA      0.063600
    105 H142       87.7173   56.3710   44.3050 dc         1 CLA      0.063600
    106 H141       88.4432   57.5988   43.1525 dc         1 CLA      0.063600
    107 H122       85.1113   56.3255   41.8517 dc         1 CLA      0.032500
    108 H121       86.5392   55.5706   42.1913 dc         1 CLA      0.032500
    109 H112       87.4491   57.7449   40.6268 dc         1 CLA      0.006600
    110 H111       85.6312   57.7744   40.1770 dc         1 CLA      0.006600
    111 H102       85.8316   55.3148   39.7792 dc         1 CLA      0.024100
    112 H101       87.5445   55.4864   39.7199 dc         1 CLA      0.024100
    113 HHD        72.6106   57.8987   38.9924 da         1 CLA      0.174300
    114 HHC        76.8874   61.0706   42.7750 da         1 CLA      0.136800
    115 HHB        81.1662   60.9477   37.9722 da         1 CLA      0.138300
    116 HBD        76.7417   57.2948   33.3840 dc         1 CLA      0.107700
    117 HAB        78.6789   61.9792   43.6375 da         1 CLA      0.155200
    118 H93        87.3920   58.4544   38.0970 dc         1 CLA      0.069500
    119 H92        88.6834   57.1686   37.7796 dc         1 CLA      0.069500
    120 H91        87.6298   57.6917   36.4877 dc         1 CLA      0.069500
    121 H8         85.4624   56.8144   37.9195 dc         1 CLA      0.029300
    122 H72        85.8811   54.5085   37.4698 dc         1 CLA      0.044400
    123 H71        87.6267   54.7904   37.1138 dc         1 CLA      0.044400
    124 H62        87.2367   55.8400   35.1778 dc         1 CLA      0.015600
    125 H61        85.5601   56.1577   35.6246 dc         1 CLA      0.015600
    126 H52        86.6682   53.3624   35.3369 dc         1 CLA      0.033200
    127 H51        85.8977   53.9267   33.8952 dc         1 CLA      0.033200
    128 H43        84.4226   52.3294   36.9113 dc         1 CLA      0.037000
    129 H42        83.0724   51.8851   35.9045 dc         1 CLA      0.037000
    130 H41        84.8039   51.3355   35.4696 dc         1 CLA      0.037000
    131 H3A        80.9213   60.0259   35.4255 dc         1 CLA      0.041100
    132 H2A        79.9861   57.2627   35.3865 dc         1 CLA      0.083100
    133 H2         82.9702   55.0584   36.0433 da         1 CLA      0.180900
    134 H18        80.8923   57.8534   43.3212 dc         1 CLA     -0.003900
    135 H13        86.5757   58.4474   42.5894 dc         1 CLA      0.019700
    136 H12        81.6093   54.1655   33.9558 dc         1 CLA      0.120400
    137 H11        83.2414   54.7614   33.1487 dc         1 CLA      0.120400
    138 C1         69.0967   62.0330   49.4722 Z1         2 LUT      0.509236
    139 C2         67.7163   61.9708   50.0982 Z2         2 LUT     -0.434695
    140 C3         66.9326   63.2276   50.3372 Z3         2 LUT      0.437453
    141 O3         67.2227   63.9643   51.5780 S1         2 LUT     -0.547129
    142 C4         67.1794   64.2306   49.2088 Z4         2 LUT     -0.468603
    143 C5         68.0396   63.9348   48.1389 Z5         2 LUT      0.279246
    144 C6         69.0429   62.9680   48.2152 Z6         2 LUT     -0.305473
    145 C7         69.5709   62.5466   46.8368 Z7         2 LUT      0.069402
    146 C8         70.5809   63.1384   46.1249 Z8         2 LUT     -0.191631
    147 C9         70.9826   62.8525   44.7806 Z9         2 LUT      0.196698
    148 C10        72.0025   63.6167   44.2942 Y1         2 LUT     -0.208611
    149 C11        72.6514   63.5010   43.0543 Y2         2 LUT      0.030784
    150 C12        73.8226   64.0927   42.7391 Y3         2 LUT     -0.220316
    151 C13        74.6613   64.0018   41.5741 Y4         2 LUT      0.215937
    152 C14        75.7894   64.7385   41.5778 Y5         2 LUT     -0.185793
    153 C15        76.8731   64.7804   40.6348 Y6         2 LUT     -0.057835
    154 C16        69.6287   60.6548   49.1848 Y7         2 LUT     -0.405615
    155 C17        70.0315   62.7463   50.3818 Y7         2 LUT     -0.405615
    156 C18        67.5600   64.4802   46.7980 Y9         2 LUT     -0.369639
    157 C19        70.4812   61.6764   44.0255 W1         2 LUT     -0.333362
    158 C20        74.2554   63.3189   40.3036 W2         2 LUT     -0.323439
    159 C21        88.1877   65.3638   34.7498 Z1         2 LUT      0.406104
    160 C22        88.9094   64.7920   33.4420 Z2         2 LUT     -0.404965
    161 C23        89.2402   65.9096   32.4563 Z3         2 LUT      0.391255
    162 O23        89.9304   65.2272   31.3707 S1         2 LUT     -0.528210
    163 C24        88.0618   66.7323   32.1886 W6         2 LUT     -0.258361
    164 C25        86.9267   66.8312   32.9363 Z5         2 LUT      0.133546
    165 C26        86.7851   65.9320   34.1862 W8         2 LUT     -0.147008
    166 C27        86.0315   66.6438   35.2458 Z7         2 LUT      0.023843
    167 C28        85.0763   66.0904   36.0365 Z8         2 LUT     -0.216987
    168 C29        84.5391   66.5699   37.3206 Z9         2 LUT      0.206524
    169 C30        83.4315   65.9481   37.7564 Y1         2 LUT     -0.215556
    170 C31        82.7394   66.2141   38.9799 Y2         2 LUT      0.025142
    171 C32        81.4750   65.7383   39.0568 Y3         2 LUT     -0.212209
    172 C33        80.4585   65.9628   40.0712 Y4         2 LUT      0.240937
    173 C34        79.1671   65.4245   39.8680 Y5         2 LUT     -0.218862
    174 C35        78.0430   65.4979   40.7844 Y6         2 LUT     -0.023547
    175 C36        89.1832   66.3911   35.3605 Y7         2 LUT     -0.393485
    176 C37        88.1025   64.3267   35.9269 Y7         2 LUT     -0.393485
    177 C38        85.6639   67.5775   32.4877 Y9         2 LUT     -0.387526
    178 C39        85.2646   67.6056   38.0941 W1         2 LUT     -0.322618
    179 C40        80.8122   66.5602   41.4202 W2         2 LUT     -0.358472
    180 H403       80.7110   67.5864   41.4951 R7         2 LUT      0.097720
    181 H402       80.1737   66.0771   42.0840 R7         2 LUT      0.097720
    182 H401       81.7821   66.1956   41.8010 R7         2 LUT      0.097720
    183 H393       84.6535   68.0519   38.8431 R4         2 LUT      0.082505
    184 H392       86.0640   67.1647   38.6646 R4         2 LUT      0.082505
    185 H391       85.6888   68.4441   37.4987 R4         2 LUT      0.082505
    186 H383       85.6789   67.8083   31.3791 R1         2 LUT      0.104030
    187 H382       84.7660   66.9721   32.5369 R1         2 LUT      0.104030
    188 H381       85.4685   68.5222   32.9745 R1         2 LUT      0.104030
    189 H373       89.0141   64.0519   36.4952 T4         2 LUT      0.089537
    190 H372       87.4217   64.7343   36.7408 T4         2 LUT      0.089537
    191 H371       87.6298   63.4574   35.4976 T4         2 LUT      0.089537
    192 H363       89.1909   67.2929   34.7278 T4         2 LUT      0.089537
    193 H362       88.8409   66.9244   36.3139 T4         2 LUT      0.089537
    194 H361       90.1429   65.9087   35.5321 T4         2 LUT      0.089537
    195 H222       89.8147   64.2708   33.7002 U2         2 LUT      0.127376
    196 H221       88.2547   64.0986   32.8595 U2         2 LUT      0.127376
    197 H203       75.1281   62.7525   39.9244 R7         2 LUT      0.087068
    198 H202       73.3864   62.5801   40.3975 R7         2 LUT      0.087068
    199 H201       73.9577   63.9351   39.4243 R7         2 LUT      0.087068
    200 H193       70.4161   60.8725   44.7039 R4         2 LUT      0.089716
    201 H192       69.5661   61.9076   43.5176 R4         2 LUT      0.089716
    202 H191       71.2094   61.3797   43.3521 R4         2 LUT      0.089716
    203 H183       68.3524   65.0583   46.4746 R1         2 LUT      0.094572
    204 H182       67.4186   63.6544   46.0751 R1         2 LUT      0.094572
    205 H181       66.6684   65.0663   46.8274 R1         2 LUT      0.094572
    206 H173       70.3653   62.0754   51.1906 T4         2 LUT      0.093752
    207 H172       70.9356   62.9849   49.8271 T4         2 LUT      0.093752
    208 H171       69.6499   63.6480   50.8955 T4         2 LUT      0.093752
    209 H163       69.1412   60.1894   48.3189 T4         2 LUT      0.093752
    210 H162       70.6880   60.7117   48.8261 T4         2 LUT      0.093752
    211 H161       69.5913   60.0668   50.1505 T4         2 LUT      0.093752
    212 HO3        67.1375   63.3536   52.3624 Q1         2 LUT      0.300121
    213 H8         71.2042   63.9641   46.5307 U7         2 LUT      0.080784
    214 H7         69.0638   61.6831   46.4667 U6         2 LUT      0.042190
    215 H42        66.1688   64.5057   48.7866 U5         2 LUT      0.145166
    216 H41        67.4974   65.2470   49.6096 U5         2 LUT      0.145166
    217 H35        78.1186   66.0895   41.7345 T3         2 LUT      0.077919
    218 H34        78.9686   64.6603   39.1246 T2         2 LUT      0.073626
    219 H32        81.1524   65.1174   38.2357 T1         2 LUT      0.092510
    220 H31        83.1714   66.9177   39.6778 U9         2 LUT      0.070048
    221 H30        83.0656   65.3351   36.9907 U8         2 LUT      0.085442
    222 H3         65.8215   63.0593   50.5350 U3         2 LUT     -0.031596
    223 H28        84.5878   65.2274   35.4800 U7         2 LUT      0.084728
    224 H27        86.5193   67.4713   35.7135 U6         2 LUT      0.087291
    225 H26        86.1252   65.0593   33.8729 Q6         2 LUT      0.075325
    226 H24        88.1961   67.2525   31.3179 Q5         2 LUT      0.094482
    227 H23        90.0281   66.5858   32.8282 U3         2 LUT     -0.024869
    228 H22        67.0870   61.4253   49.3907 U2         2 LUT      0.127376
    229 H21        67.6876   61.3233   51.0114 U2         2 LUT      0.127376
    230 H15        76.8008   64.0544   39.7829 T3         2 LUT      0.093200
    231 H14        76.0315   65.3157   42.4240 T2         2 LUT      0.068865
    232 H12        74.2827   64.6661   43.5053 T1         2 LUT      0.095507
    233 H11        72.2165   62.9632   42.3367 U9         2 LUT      0.068930
    234 H10        72.4076   64.3307   44.9691 U8         2 LUT      0.083911
    235 H1         89.3651   64.8484   30.6774 Q1         2 LUT      0.297311
@<TRIPOS>BOND
    1     6     1 1
    2     7     2 1
    3     8     3 1
    4     9     4 1
    5    11     4 1
    6    12     6 1
    7    13     9 1
    8    16     9 1
    9    25     5 1
   10    25    16 1
   11    26    10 1
   12    26    17 1
   13    27    18 1
   14    28    14 1
   15    28    19 1
   16    29    12 1
   17    30    13 1
   18    31    24 1
   19    32     1 1
   20    32    25 1
   21    33    21 1
   22    33    26 1
   23    34    22 1
   24    34    27 1
   25    35    23 1
   26    35    28 1
   27    36    12 1
   28    36    24 1
   29    37    13 1
   30    37    15 1
   31    38    31 1
   32    39    20 1
   33    39    32 1
   34    40     2 1
   35    40    33 1
   36    41     3 1
   37    41    34 1
   38    42     4 1
   39    42    35 1
   40    43    38 1
   41    44     5 1
   42    44    17 1
   43    44    39 1
   44    45    10 1
   45    45    18 1
   46    45    40 1
   47    46    19 1
   48    46    41 1
   49    47    14 1
   50    47    16 1
   51    47    42 1
   52    48    38 1
   53    49    48 1
   54    50    49 1
   55    51    50 1
   56    52    51 1
   57    53    51 1
   58    54    53 1
   59    55    54 1
   60    56    55 1
   61    57    56 1
   62    58    56 1
   63    59    58 1
   64    60    59 1
   65    61    60 1
   66    62    61 1
   67    63    61 1
   68    64    27 1
   69    64    46 1
   70    65     5 1
   71    65    10 1
   72    65    64 1
   73    65    14 1
   74    66    23 1
   75    67    23 1
   76    68    23 1
   77    69    22 1
   78    70    22 1
   79    71    22 1
   80    72    21 1
   81    73    21 1
   82    74    21 1
   83    75    20 1
   84    76    20 1
   85    77    20 1
   86    78    15 1
   87    79    15 1
   88    80    15 1
   89    81     8 1
   90    82     8 1
   91    83     8 1
   92    84     7 1
   93    85     7 1
   94    86     6 1
   95    87     6 1
   96    88     3 1
   97    89     3 1
   98    90     1 1
   99    91     1 1
  100    92    63 1
  101    93    63 1
  102    94    63 1
  103    95    62 1
  104    96    62 1
  105    97    62 1
  106    98    60 1
  107    99    60 1
  108   100    59 1
  109   101    59 1
  110   102    58 1
  111   103    58 1
  112   104    57 1
  113   105    57 1
  114   106    57 1
  115   107    55 1
  116   108    55 1
  117   109    54 1
  118   110    54 1
  119   111    53 1
  120   112    53 1
  121   113    19 1
  122   114    18 1
  123   115    17 1
  124   116     9 1
  125   117     2 1
  126   118    52 1
  127   119    52 1
  128   120    52 1
  129   121    51 1
  130   122    50 1
  131   123    50 1
  132   124    49 1
  133   125    49 1
  134   126    48 1
  135   127    48 1
  136   128    43 1
  137   129    43 1
  138   130    43 1
  139   131    39 1
  140   132    32 1
  141   133    31 1
  142   134    61 1
  143   135    56 1
  144   136    24 1
  145   137    24 1
  146   139   138 1
  147   140   139 1
  148   141   140 1
  149   142   140 1
  150   143   142 1
  151   144   138 1
  152   144   143 1
  153   145   144 1
  154   146   145 1
  155   147   146 1
  156   148   147 1
  157   149   148 1
  158   150   149 1
  159   151   150 1
  160   152   151 1
  161   153   152 1
  162   154   138 1
  163   155   138 1
  164   156   143 1
  165   157   147 1
  166   158   151 1
  167   160   159 1
  168   161   160 1
  169   162   161 1
  170   163   161 1
  171   164   163 1
  172   165   159 1
  173   165   164 1
  174   166   165 1
  175   167   166 1
  176   168   167 1
  177   169   168 1
  178   170   169 1
  179   171   170 1
  180   172   171 1
  181   173   172 1
  182   174   153 1
  183   174   173 1
  184   175   159 1
  185   176   159 1
  186   177   164 1
  187   178   168 1
  188   179   172 1
  189   180   179 1
  190   181   179 1
  191   182   179 1
  192   183   178 1
  193   184   178 1
  194   185   178 1
  195   186   177 1
  196   187   177 1
  197   188   177 1
  198   189   176 1
  199   190   176 1
  200   191   176 1
  201   192   175 1
  202   193   175 1
  203   194   175 1
  204   195   160 1
  205   196   160 1
  206   197   158 1
  207   198   158 1
  208   199   158 1
  209   200   157 1
  210   201   157 1
  211   202   157 1
  212   203   156 1
  213   204   156 1
  214   205   156 1
  215   206   155 1
  216   207   155 1
  217   208   155 1
  218   209   154 1
  219   210   154 1
  220   211   154 1
  221   212   141 1
  222   213   146 1
  223   214   145 1
  224   215   142 1
  225   216   142 1
  226   217   174 1
  227   218   173 1
  228   219   171 1
  229   220   170 1
  230   221   169 1
  231   222   140 1
  232   223   167 1
  233   224   166 1
  234   225   165 1
  235   226   163 1
  236   227   161 1
  237   228   139 1
  238   229   139 1
  239   230   153 1
  240   231   152 1
  241   232   150 1
  242   233   149 1
  243   234   148 1
  244   235   162 1
  245   65    153 1
  246   65    174 1
@<TRIPOS>SUBSTRUCTURE
      1 CLA               1 ****               0 ****  **** 
      2 LUT             138 ****               0 ****  **** 
