@<TRIPOS>MOLECULE
Cpptraj generated mol2 file.
  235   246     2     0     0
SMALL
USER_CHARGES


@<TRIPOS>ATOM
      1 CAA        77.0912   57.7633   33.7767 a2         1 CLA     -0.055900
      2 CAB        77.2978   61.3145   42.7463 c8         1 CLA     -0.148500
      3 CAC        70.1559   57.7523   42.1474 a2         1 CLA     -0.012600
      4 CAD        72.7026   55.4386   34.7532 ck         1 CLA      0.398800
      5 NA         76.1387   58.1089   37.1033 ns         1 CLA     -0.225500
      6 CBA        78.2564   57.6099   32.8102 a2         1 CLA     -0.135000
      7 CBB        78.2827   61.0236   43.6259 c0         1 CLA     -0.395200
      8 CBC        70.2141   56.2627   42.5253 a3         1 CLA     -0.037700
      9 CBD        74.1983   55.9503   34.3979 a1         1 CLA     -0.053900
     10 NB         75.9837   59.7281   39.6001 nm         1 CLA     -0.295700
     11 OBD        71.9649   54.7827   33.9379 o2         1 CLA     -0.494600
     12 CGA        78.7127   56.2360   32.4309 c4         1 CLA      0.827000
     13 CGD        74.9809   54.8032   33.7081 c4         1 CLA      0.655300
     14 ND         73.3330   57.3028   37.7101 nm         1 CLA     -0.291600
     15 CED        75.5081   52.5062   33.8600 a3         1 CLA      0.005400
     16 CHA        74.7377   56.6484   35.6864 cs         1 CLA     -0.123800
     17 CHB        77.9211   59.4718   38.1183 aa         1 CLA     -0.291900
     18 CHC        74.7140   60.0120   41.6443 aa         1 CLA     -0.090400
     19 CHD        71.3855   57.3643   39.2693 aa         1 CLA     -0.052000
     20 CMA        79.4409   57.1790   36.5169 a3         1 CLA     -0.230700
     21 CMB        79.3268   61.3401   40.2107 a3         1 CLA     -0.180800
     22 CMC        72.1967   59.3962   43.7928 a3         1 CLA     -0.134000
     23 CMD        69.9684   55.6128   37.0434 a3         1 CLA     -0.141100
     24 C1         79.8334   54.2031   33.1305 a2         1 CLA      0.023000
     25 C1A        75.9685   57.2565   36.0311 ac         1 CLA     -0.015100
     26 C1B        77.3059   60.0221   39.2436 cr         1 CLA      0.054700
     27 C1C        73.5166   59.3013   41.3951 cn         1 CLA     -0.005600
     28 C1D        72.0355   56.9968   38.0305 ap         1 CLA     -0.047300
     29 O1A        78.5661   55.7488   31.2975 o2         1 CLA     -0.610800
     30 O1D        75.6832   54.9356   32.7257 o2         1 CLA     -0.558200
     31 C2         80.3957   53.6617   34.4282 c8         1 CLA     -0.325100
     32 C2A        77.2894   57.2447   35.1656 a1         1 CLA      0.098600
     33 C2B        77.9317   60.8210   40.2649 cb         1 CLA      0.088500
     34 C2C        72.3432   59.0573   42.2940 cb         1 CLA      0.053700
     35 C2D        71.4534   56.1667   37.0325 cb         1 CLA      0.058900
     36 O2A        79.3733   55.5607   33.4727 o1         1 CLA     -0.437200
     37 O2D        74.6563   53.6638   34.2977 o1         1 CLA     -0.357600
     38 C3         81.1007   52.5167   34.4886 c5         1 CLA      0.031200
     39 C3A        78.3182   58.0871   36.0135 a1         1 CLA      0.166800
     40 C3B        77.0552   60.8126   41.3733 cb         1 CLA      0.035000
     41 C3C        71.4597   58.2722   41.6639 cb         1 CLA     -0.089900
     42 C3D        72.4588   56.0144   36.1019 cb         1 CLA     -0.035900
     43 C4         80.3534   51.2371   34.6230 a3         1 CLA     -0.053300
     44 C4A        77.4306   58.6054   37.1394 ac         1 CLA      0.001800
     45 C4B        75.8789   60.1624   40.8629 cn         1 CLA     -0.020900
     46 C4C        71.9894   58.1499   40.3201 cr         1 CLA     -0.044400
     47 C4D        73.6396   56.6993   36.5478 c6         1 CLA     -0.046000
     48 C5         82.6221   52.4609   34.4516 a2         1 CLA     -0.070400
     49 C6         83.3606   53.7813   34.9565 a2         1 CLA      0.043900
     50 C7         83.2625   54.1080   36.4765 a2         1 CLA     -0.150000
     51 C8         83.5895   55.6019   36.8382 a1         1 CLA      0.064200
     52 C9         85.0534   55.9539   36.4121 a3         1 CLA     -0.259300
     53 C10        83.5635   55.9200   38.3792 a2         1 CLA     -0.071900
     54 C11        82.1742   56.0280   38.9491 a2         1 CLA      0.014500
     55 C12        82.2835   56.4295   40.4731 a2         1 CLA     -0.112100
     56 C13        80.9001   56.7659   41.1153 a1         1 CLA      0.089200
     57 C14        80.1700   58.0552   40.4922 a3         1 CLA     -0.239100
     58 C15        80.9748   56.8339   42.6858 a2         1 CLA     -0.102200
     59 C16        81.2822   58.1838   43.3672 a2         1 CLA      0.023900
     60 C17        82.7717   58.4709   43.1299 a2         1 CLA     -0.105700
     61 C18        83.4141   59.7303   43.8220 a1         1 CLA      0.206800
     62 C19        82.6120   61.0228   43.6162 a3         1 CLA     -0.280100
     63 C20        83.5513   59.2789   45.3338 a3         1 CLA     -0.280100
     64 NC         73.2019   58.7910   40.1594 nx         1 CLA     -0.309200
     65 MG         74.6132   58.6066   38.5651 mg         1 CLA      0.895000
     66 HMD3       69.8407   55.0420   37.9070 dc         1 CLA      0.064300
     67 HMD2       69.3214   56.4491   36.8907 dc         1 CLA      0.064300
     68 HMD1       69.9978   55.0270   36.1292 dc         1 CLA      0.064300
     69 HMC3       72.8477   60.1680   44.0650 dc         1 CLA      0.052100
     70 HMC2       71.2085   59.7239   43.9243 dc         1 CLA      0.052100
     71 HMC1       72.4594   58.4662   44.4510 dc         1 CLA      0.052100
     72 HMB3       79.7243   61.5880   41.1968 dc         1 CLA      0.063600
     73 HMB2       79.8967   60.5366   39.8310 dc         1 CLA      0.063600
     74 HMB1       79.1953   62.2075   39.5403 dc         1 CLA      0.063600
     75 HMA3       79.0569   56.5931   37.3316 dc         1 CLA      0.058300
     76 HMA2       79.7998   56.4787   35.7900 dc         1 CLA      0.058300
     77 HMA1       80.3071   57.6875   36.9599 dc         1 CLA      0.058300
     78 HED3       76.4685   52.7292   34.2427 dc         1 CLA      0.079300
     79 HED2       75.2349   51.6415   34.4284 dc         1 CLA      0.079300
     80 HED1       75.3903   52.3771   32.8071 dc         1 CLA      0.079300
     81 HBC3       69.1890   55.9232   42.8311 dc         1 CLA      0.016300
     82 HBC2       70.5512   55.6295   41.6489 dc         1 CLA      0.016300
     83 HBC1       70.8971   56.2049   43.4172 dc         1 CLA      0.016300
     84 HBB2       78.3160   61.4294   44.6819 da         1 CLA      0.183000
     85 HBB1       78.9134   60.0987   43.4893 da         1 CLA      0.183000
     86 HBA2       77.9628   58.1594   31.8839 dc         1 CLA      0.029400
     87 HBA1       79.1123   58.1549   33.1882 dc         1 CLA      0.029400
     88 HAC2       69.7739   58.3311   43.0158 dc         1 CLA      0.029300
     89 HAC1       69.4687   57.8978   41.3555 dc         1 CLA      0.029300
     90 HAA2       76.2633   57.1610   33.4619 dc         1 CLA      0.028700
     91 HAA1       76.7160   58.7861   33.8967 dc         1 CLA      0.028700
     92 H203       84.4234   59.8777   45.6320 dc         1 CLA      0.065600
     93 H202       82.6732   59.6369   45.8855 dc         1 CLA      0.065600
     94 H201       83.8724   58.2751   45.4620 dc         1 CLA      0.065600
     95 H193       81.6354   60.8661   44.1818 dc         1 CLA      0.065600
     96 H192       83.1972   61.8388   44.0173 dc         1 CLA      0.065600
     97 H191       82.4161   61.2041   42.5710 dc         1 CLA      0.065600
     98 H172       83.2384   57.5840   43.4518 dc         1 CLA      0.027600
     99 H171       82.9508   58.6270   42.0430 dc         1 CLA      0.027600
    100 H162       80.7709   59.0818   43.1038 dc         1 CLA      0.002900
    101 H161       81.2656   57.9932   44.4617 dc         1 CLA      0.002900
    102 H152       79.9273   56.5793   42.9700 dc         1 CLA      0.029100
    103 H151       81.6478   56.0834   43.0445 dc         1 CLA      0.029100
    104 H143       80.6310   58.9635   40.8903 dc         1 CLA      0.063600
    105 H142       80.1339   57.9274   39.4482 dc         1 CLA      0.063600
    106 H141       79.1740   58.0771   40.9217 dc         1 CLA      0.063600
    107 H122       82.6829   55.5895   41.0237 dc         1 CLA      0.032500
    108 H121       82.9705   57.2214   40.5363 dc         1 CLA      0.032500
    109 H112       81.6048   56.6750   38.3775 dc         1 CLA      0.006600
    110 H111       81.6807   55.1071   38.8556 dc         1 CLA      0.006600
    111 H102       84.0419   55.1338   39.0167 dc         1 CLA      0.024100
    112 H101       84.1802   56.8164   38.6033 dc         1 CLA      0.024100
    113 HHD        70.3568   57.1223   39.3993 da         1 CLA      0.174300
    114 HHC        74.7437   60.3969   42.6337 da         1 CLA      0.136800
    115 HHB        78.9409   59.9751   37.9533 da         1 CLA      0.138300
    116 HBD        74.1015   56.6144   33.4978 dc         1 CLA      0.107700
    117 HAB        76.5366   62.1182   43.0535 da         1 CLA      0.155200
    118 H93        85.7310   55.3930   37.0899 dc         1 CLA      0.069500
    119 H92        85.2371   55.7311   35.3685 dc         1 CLA      0.069500
    120 H91        85.2863   56.9885   36.5111 dc         1 CLA      0.069500
    121 H8         82.8809   56.2193   36.2636 dc         1 CLA      0.029300
    122 H72        82.2129   53.9200   36.7871 dc         1 CLA      0.044400
    123 H71        83.8855   53.4328   37.0954 dc         1 CLA      0.044400
    124 H62        84.4485   53.5556   34.8417 dc         1 CLA      0.015600
    125 H61        82.9932   54.6867   34.4692 dc         1 CLA      0.015600
    126 H52        83.0931   51.5202   34.8306 dc         1 CLA      0.033200
    127 H51        82.8034   52.3952   33.3624 dc         1 CLA      0.033200
    128 H43        80.4683   50.8591   35.6377 dc         1 CLA      0.037000
    129 H42        79.3002   51.4089   34.3967 dc         1 CLA      0.037000
    130 H41        80.7494   50.4879   33.9920 dc         1 CLA      0.037000
    131 H3A        78.7042   58.9531   35.4777 dc         1 CLA      0.041100
    132 H2A        77.4778   56.2079   35.0462 dc         1 CLA      0.083100
    133 H2         80.1168   54.1671   35.3748 da         1 CLA      0.180900
    134 H18        84.4272   59.9055   43.3535 dc         1 CLA     -0.003900
    135 H13        80.3582   55.8151   40.9008 dc         1 CLA      0.019700
    136 H12        79.0388   53.5271   32.8072 dc         1 CLA      0.120400
    137 H11        80.4981   54.1704   32.3127 dc         1 CLA      0.120400
    138 C1         66.8466   60.7454   49.2524 Z1         2 LUT      0.509236
    139 C2         67.1808   61.9265   50.1751 Z2         2 LUT     -0.434695
    140 C3         65.8957   62.7708   50.5131 Z3         2 LUT      0.437453
    141 O3         66.5016   63.9878   50.8646 S1         2 LUT     -0.547129
    142 C4         65.0514   63.0887   49.2469 Z4         2 LUT     -0.468603
    143 C5         65.6621   62.5248   47.9687 Z5         2 LUT      0.279246
    144 C6         66.4040   61.4341   47.9101 Z6         2 LUT     -0.305473
    145 C7         67.1403   61.0834   46.8055 Z7         2 LUT      0.069402
    146 C8         68.0671   61.8328   46.0966 Z8         2 LUT     -0.191631
    147 C9         68.7581   61.4017   44.8694 Z9         2 LUT      0.196698
    148 C10        69.6721   62.1921   44.2322 Y1         2 LUT     -0.208611
    149 C11        70.3241   62.0000   43.0050 Y2         2 LUT      0.030784
    150 C12        71.3562   62.7736   42.7064 Y3         2 LUT     -0.220316
    151 C13        72.2258   62.6761   41.5751 Y4         2 LUT      0.215937
    152 C14        73.4168   63.2924   41.6991 Y5         2 LUT     -0.185793
    153 C15        74.4753   63.4473   40.7033 Y6         2 LUT     -0.057835
    154 C16        65.5992   59.9042   49.7056 Y7         2 LUT     -0.405615
    155 C17        68.1533   59.8744   49.2119 Y7         2 LUT     -0.405615
    156 C18        65.3815   63.4366   46.8007 Y9         2 LUT     -0.369639
    157 C19        68.1495   60.2963   44.1179 W1         2 LUT     -0.333362
    158 C20        71.6632   62.2650   40.2435 W2         2 LUT     -0.323439
    159 C21        85.4736   64.6383   34.2450 Z1         2 LUT      0.406104
    160 C22        86.2046   64.1843   32.9533 Z2         2 LUT     -0.404965
    161 C23        86.4702   65.3991   31.9871 Z3         2 LUT      0.391255
    162 O23        87.1819   64.9361   30.8183 S1         2 LUT     -0.528210
    163 C24        85.0923   66.0419   31.7770 W6         2 LUT     -0.258361
    164 C25        84.0475   66.0241   32.5813 Z5         2 LUT      0.133546
    165 C26        83.9857   65.2118   33.8634 W8         2 LUT     -0.147008
    166 C27        83.3417   65.8673   35.0403 Z7         2 LUT      0.023843
    167 C28        82.0963   65.5632   35.6030 Z8         2 LUT     -0.216987
    168 C29        81.4331   66.0683   36.7542 Z9         2 LUT      0.206524
    169 C30        80.4289   65.3175   37.3403 Y1         2 LUT     -0.215556
    170 C31        79.7411   65.6319   38.5457 Y2         2 LUT      0.025142
    171 C32        78.6026   64.9670   38.8354 Y3         2 LUT     -0.212209
    172 C33        77.7854   65.0221   39.9993 Y4         2 LUT      0.240937
    173 C34        76.5951   64.3717   39.9811 Y5         2 LUT     -0.218862
    174 C35        75.5855   64.1816   40.9694 Y6         2 LUT     -0.023547
    175 C36        86.4504   65.5418   34.9742 Y7         2 LUT     -0.393485
    176 C37        85.3553   63.3096   35.0672 Y7         2 LUT     -0.393485
    177 C38        82.7985   66.6610   32.1422 Y9         2 LUT     -0.387526
    178 C39        81.9371   67.2953   37.4278 W1         2 LUT     -0.322618
    179 C40        78.4027   65.6578   41.2227 W2         2 LUT     -0.358472
    180 H403       79.3141   65.0403   41.4441 R7         2 LUT      0.097720
    181 H402       78.8534   66.6527   41.0762 R7         2 LUT      0.097720
    182 H401       77.8047   65.6306   42.1555 R7         2 LUT      0.097720
    183 H393       82.7260   67.0315   38.1389 R4         2 LUT      0.082505
    184 H392       82.4562   67.8482   36.6398 R4         2 LUT      0.082505
    185 H391       81.2822   67.9847   37.9393 R4         2 LUT      0.082505
    186 H383       82.4626   67.4563   32.8109 R1         2 LUT      0.104030
    187 H382       82.9322   67.2319   31.2255 R1         2 LUT      0.104030
    188 H381       81.9523   65.9260   31.9883 R1         2 LUT      0.104030
    189 H373       84.9360   62.4503   34.5128 T4         2 LUT      0.089537
    190 H372       86.4001   63.0940   35.3915 T4         2 LUT      0.089537
    191 H371       84.7819   63.4218   36.0501 T4         2 LUT      0.089537
    192 H363       86.4686   66.4963   34.4714 T4         2 LUT      0.089537
    193 H362       86.1593   65.6826   36.0305 T4         2 LUT      0.089537
    194 H361       87.5506   65.1833   34.9947 T4         2 LUT      0.089537
    195 H222       87.2048   63.6604   33.1487 U2         2 LUT      0.127376
    196 H221       85.5740   63.4570   32.4290 U2         2 LUT      0.127376
    197 H203       70.6279   62.5512   40.0884 R7         2 LUT      0.087068
    198 H202       72.2193   62.6035   39.3801 R7         2 LUT      0.087068
    199 H201       71.7108   61.1829   40.1829 R7         2 LUT      0.087068
    200 H193       68.3110   59.4828   44.8646 R4         2 LUT      0.089716
    201 H192       67.0763   60.3558   43.8570 R4         2 LUT      0.089716
    202 H191       68.5542   59.8847   43.1506 R4         2 LUT      0.089716
    203 H183       66.0855   64.3084   46.8283 R1         2 LUT      0.094572
    204 H182       65.4821   62.8522   45.8735 R1         2 LUT      0.094572
    205 H181       64.3247   63.6604   46.6797 R1         2 LUT      0.094572
    206 H173       69.0837   60.3868   48.8989 T4         2 LUT      0.093752
    207 H172       68.1980   59.4896   50.2710 T4         2 LUT      0.093752
    208 H171       67.9737   58.9831   48.5404 T4         2 LUT      0.093752
    209 H163       65.7071   59.6829   50.7589 T4         2 LUT      0.093752
    210 H162       64.6334   60.4705   49.6368 T4         2 LUT      0.093752
    211 H161       65.6454   58.9570   49.1756 T4         2 LUT      0.093752
    212 HO3        65.9962   64.4949   51.4987 Q1         2 LUT      0.300121
    213 H8         68.4070   62.8502   46.3959 U7         2 LUT      0.080784
    214 H7         66.8665   60.0139   46.5120 U6         2 LUT      0.042190
    215 H42        64.0354   62.6993   49.3043 U5         2 LUT      0.145166
    216 H41        64.7778   64.1513   49.2347 U5         2 LUT      0.145166
    217 H35        75.6476   64.5631   41.9903 T3         2 LUT      0.077919
    218 H34        76.3506   63.8952   39.0456 T2         2 LUT      0.073626
    219 H32        78.1999   64.2873   38.0818 T1         2 LUT      0.092510
    220 H31        80.1640   66.4274   39.2232 U9         2 LUT      0.070048
    221 H30        80.1511   64.4101   36.7743 U8         2 LUT      0.085442
    222 H3         65.3892   62.3773   51.3809 U3         2 LUT     -0.031596
    223 H28        81.5876   64.7464   35.1220 U7         2 LUT      0.084728
    224 H27        83.9423   66.5953   35.5736 U6         2 LUT      0.087291
    225 H26        83.3397   64.3801   33.6685 Q6         2 LUT      0.075325
    226 H24        84.9026   66.4537   30.7655 Q5         2 LUT      0.094482
    227 H23        87.2549   65.9982   32.4256 U3         2 LUT     -0.024869
    228 H22        67.5356   61.4956   51.1544 U2         2 LUT      0.127376
    229 H21        68.0921   62.5435   49.9470 U2         2 LUT      0.127376
    230 H15        74.4523   63.0167   39.7268 T3         2 LUT      0.093200
    231 H14        73.6778   63.7336   42.6910 T2         2 LUT      0.068865
    232 H12        71.6647   63.4256   43.5444 T1         2 LUT      0.095507
    233 H11        69.8638   61.2431   42.3276 U9         2 LUT      0.068930
    234 H10        69.9573   62.9934   44.8679 U8         2 LUT      0.083911
    235 H1         86.7078   64.5113   30.0736 Q1         2 LUT      0.297311
@<TRIPOS>BOND
    1     6     1 1
    2     7     2 1
    3     8     3 1
    4     9     4 1
    5    11     4 1
    6    12     6 1
    7    13     9 1
    8    16     9 1
    9    25     5 1
   10    25    16 1
   11    26    10 1
   12    26    17 1
   13    27    18 1
   14    28    14 1
   15    28    19 1
   16    29    12 1
   17    30    13 1
   18    31    24 1
   19    32     1 1
   20    32    25 1
   21    33    21 1
   22    33    26 1
   23    34    22 1
   24    34    27 1
   25    35    23 1
   26    35    28 1
   27    36    12 1
   28    36    24 1
   29    37    13 1
   30    37    15 1
   31    38    31 1
   32    39    20 1
   33    39    32 1
   34    40     2 1
   35    40    33 1
   36    41     3 1
   37    41    34 1
   38    42     4 1
   39    42    35 1
   40    43    38 1
   41    44     5 1
   42    44    17 1
   43    44    39 1
   44    45    10 1
   45    45    18 1
   46    45    40 1
   47    46    19 1
   48    46    41 1
   49    47    14 1
   50    47    16 1
   51    47    42 1
   52    48    38 1
   53    49    48 1
   54    50    49 1
   55    51    50 1
   56    52    51 1
   57    53    51 1
   58    54    53 1
   59    55    54 1
   60    56    55 1
   61    57    56 1
   62    58    56 1
   63    59    58 1
   64    60    59 1
   65    61    60 1
   66    62    61 1
   67    63    61 1
   68    64    27 1
   69    64    46 1
   70    65     5 1
   71    65    10 1
   72    65    64 1
   73    65    14 1
   74    66    23 1
   75    67    23 1
   76    68    23 1
   77    69    22 1
   78    70    22 1
   79    71    22 1
   80    72    21 1
   81    73    21 1
   82    74    21 1
   83    75    20 1
   84    76    20 1
   85    77    20 1
   86    78    15 1
   87    79    15 1
   88    80    15 1
   89    81     8 1
   90    82     8 1
   91    83     8 1
   92    84     7 1
   93    85     7 1
   94    86     6 1
   95    87     6 1
   96    88     3 1
   97    89     3 1
   98    90     1 1
   99    91     1 1
  100    92    63 1
  101    93    63 1
  102    94    63 1
  103    95    62 1
  104    96    62 1
  105    97    62 1
  106    98    60 1
  107    99    60 1
  108   100    59 1
  109   101    59 1
  110   102    58 1
  111   103    58 1
  112   104    57 1
  113   105    57 1
  114   106    57 1
  115   107    55 1
  116   108    55 1
  117   109    54 1
  118   110    54 1
  119   111    53 1
  120   112    53 1
  121   113    19 1
  122   114    18 1
  123   115    17 1
  124   116     9 1
  125   117     2 1
  126   118    52 1
  127   119    52 1
  128   120    52 1
  129   121    51 1
  130   122    50 1
  131   123    50 1
  132   124    49 1
  133   125    49 1
  134   126    48 1
  135   127    48 1
  136   128    43 1
  137   129    43 1
  138   130    43 1
  139   131    39 1
  140   132    32 1
  141   133    31 1
  142   134    61 1
  143   135    56 1
  144   136    24 1
  145   137    24 1
  146   139   138 1
  147   140   139 1
  148   141   140 1
  149   142   140 1
  150   143   142 1
  151   144   138 1
  152   144   143 1
  153   145   144 1
  154   146   145 1
  155   147   146 1
  156   148   147 1
  157   149   148 1
  158   150   149 1
  159   151   150 1
  160   152   151 1
  161   153   152 1
  162   154   138 1
  163   155   138 1
  164   156   143 1
  165   157   147 1
  166   158   151 1
  167   160   159 1
  168   161   160 1
  169   162   161 1
  170   163   161 1
  171   164   163 1
  172   165   159 1
  173   165   164 1
  174   166   165 1
  175   167   166 1
  176   168   167 1
  177   169   168 1
  178   170   169 1
  179   171   170 1
  180   172   171 1
  181   173   172 1
  182   174   153 1
  183   174   173 1
  184   175   159 1
  185   176   159 1
  186   177   164 1
  187   178   168 1
  188   179   172 1
  189   180   179 1
  190   181   179 1
  191   182   179 1
  192   183   178 1
  193   184   178 1
  194   185   178 1
  195   186   177 1
  196   187   177 1
  197   188   177 1
  198   189   176 1
  199   190   176 1
  200   191   176 1
  201   192   175 1
  202   193   175 1
  203   194   175 1
  204   195   160 1
  205   196   160 1
  206   197   158 1
  207   198   158 1
  208   199   158 1
  209   200   157 1
  210   201   157 1
  211   202   157 1
  212   203   156 1
  213   204   156 1
  214   205   156 1
  215   206   155 1
  216   207   155 1
  217   208   155 1
  218   209   154 1
  219   210   154 1
  220   211   154 1
  221   212   141 1
  222   213   146 1
  223   214   145 1
  224   215   142 1
  225   216   142 1
  226   217   174 1
  227   218   173 1
  228   219   171 1
  229   220   170 1
  230   221   169 1
  231   222   140 1
  232   223   167 1
  233   224   166 1
  234   225   165 1
  235   226   163 1
  236   227   161 1
  237   228   139 1
  238   229   139 1
  239   230   153 1
  240   231   152 1
  241   232   150 1
  242   233   149 1
  243   234   148 1
  244   235   162 1
  245   65    153 1
  246   65    174 1
@<TRIPOS>SUBSTRUCTURE
      1 CLA               1 ****               0 ****  **** 
      2 LUT             138 ****               0 ****  **** 
