@<TRIPOS>MOLECULE
Cpptraj generated mol2 file.
  235   246     2     0     0
SMALL
USER_CHARGES


@<TRIPOS>ATOM
      1 CAA        80.2946   59.5134   33.7452 a2         1 CLA     -0.055900
      2 CAB        79.3807   63.0147   42.8394 c8         1 CLA     -0.148500
      3 CAC        72.9004   58.5776   41.9590 a2         1 CLA     -0.012600
      4 CAD        75.9003   56.9183   34.5801 ck         1 CLA      0.398800
      5 NA         78.9111   59.7595   37.0996 ns         1 CLA     -0.225500
      6 CBA        81.6155   59.2009   32.9550 a2         1 CLA     -0.135000
      7 CBB        80.3721   63.0297   43.7094 c0         1 CLA     -0.395200
      8 CBC        73.1475   57.0909   42.1719 a3         1 CLA     -0.037700
      9 CBD        77.3355   57.5139   34.3973 a1         1 CLA     -0.053900
     10 NB         78.5618   61.1724   39.7597 nm         1 CLA     -0.295700
     11 OBD        75.3620   56.1036   33.8256 o2         1 CLA     -0.494600
     12 CGA        81.8483   57.7103   32.6792 c4         1 CLA      0.827000
     13 CGD        78.3284   56.3938   34.2864 c4         1 CLA      0.655300
     14 ND         76.1526   58.7950   37.6018 nm         1 CLA     -0.291600
     15 CED        79.5845   54.7516   35.3960 a3         1 CLA      0.005400
     16 CHA        77.6218   58.4907   35.5997 cs         1 CLA     -0.123800
     17 CHB        80.5857   61.1438   38.3051 aa         1 CLA     -0.291900
     18 CHC        77.1128   61.4131   41.7040 aa         1 CLA     -0.090400
     19 CHD        74.2189   58.4153   39.1340 aa         1 CLA     -0.052000
     20 CMA        82.3435   59.1123   36.6265 a3         1 CLA     -0.230700
     21 CMB        81.6680   63.0567   40.4423 a3         1 CLA     -0.180800
     22 CMC        74.7848   60.6291   43.7229 a3         1 CLA     -0.134000
     23 CMD        73.1505   56.5410   36.7594 a3         1 CLA     -0.141100
     24 C1         82.7780   55.6029   33.5758 a2         1 CLA      0.023000
     25 C1A        78.8333   59.0649   35.9682 ac         1 CLA     -0.015100
     26 C1B        79.8589   61.5573   39.4858 cr         1 CLA      0.054700
     27 C1C        76.0386   60.6188   41.4031 cn         1 CLA     -0.005600
     28 C1D        74.8635   58.2638   37.8960 ap         1 CLA     -0.047300
     29 O1A        81.7651   57.1758   31.5752 o2         1 CLA     -0.610800
     30 O1D        79.1290   56.3227   33.3741 o2         1 CLA     -0.558200
     31 C2         83.0723   55.2189   34.9998 c8         1 CLA     -0.325100
     32 C2A        80.2362   59.0385   35.1936 a1         1 CLA      0.098600
     33 C2B        80.3519   62.3211   40.5213 cb         1 CLA      0.088500
     34 C2C        74.9332   60.2041   42.2839 cb         1 CLA      0.053700
     35 C2D        74.4312   57.3575   36.7603 cb         1 CLA      0.058900
     36 O2A        82.4097   57.0242   33.7814 o1         1 CLA     -0.437200
     37 O2D        78.4030   55.6091   35.4060 o1         1 CLA     -0.357600
     38 C3         83.9708   54.2845   35.3353 c5         1 CLA      0.031200
     39 C3A        81.1438   59.9156   36.1655 a1         1 CLA      0.166800
     40 C3B        79.3925   62.3753   41.5193 cb         1 CLA      0.035000
     41 C3C        74.1087   59.3142   41.4890 cb         1 CLA     -0.089900
     42 C3D        75.4532   57.3895   35.8650 cb         1 CLA     -0.035900
     43 C4         83.7349   52.8697   35.8276 a3         1 CLA     -0.053300
     44 C4A        80.1862   60.2885   37.3039 ac         1 CLA      0.001800
     45 C4B        78.2720   61.6330   41.0131 cn         1 CLA     -0.020900
     46 C4C        74.6964   59.2017   40.2228 cr         1 CLA     -0.044400
     47 C4D        76.4502   58.2839   36.3731 c6         1 CLA     -0.046000
     48 C5         85.4272   54.6446   35.1508 a2         1 CLA     -0.070400
     49 C6         85.8954   55.9633   35.7933 a2         1 CLA      0.043900
     50 C7         85.7506   55.8589   37.3129 a2         1 CLA     -0.150000
     51 C8         86.3480   57.1158   38.0451 a1         1 CLA      0.064200
     52 C9         87.7776   57.4018   37.5242 a3         1 CLA     -0.259300
     53 C10        86.4334   56.9871   39.5900 a2         1 CLA     -0.071900
     54 C11        86.6479   58.2207   40.4662 a2         1 CLA      0.014500
     55 C12        86.7078   57.8701   41.9155 a2         1 CLA     -0.112100
     56 C13        86.6188   59.0957   42.9588 a1         1 CLA      0.089200
     57 C14        87.8183   60.1227   42.7478 a3         1 CLA     -0.239100
     58 C15        86.4924   58.5560   44.4782 a2         1 CLA     -0.102200
     59 C16        85.1083   58.0218   44.7858 a2         1 CLA      0.023900
     60 C17        84.9451   57.5739   46.2406 a2         1 CLA     -0.105700
     61 C18        85.4525   58.4615   47.3748 a1         1 CLA      0.206800
     62 C19        84.8349   59.8593   47.4496 a3         1 CLA     -0.280100
     63 C20        85.2318   57.7699   48.7294 a3         1 CLA     -0.280100
     64 NC         75.8864   59.9205   40.2012 nx         1 CLA     -0.309200
     65 MG         77.3311   60.0546   38.5119 mg         1 CLA      0.895000
     66 HMD3       73.1748   55.9547   35.8530 dc         1 CLA      0.064300
     67 HMD2       73.1894   55.8391   37.6174 dc         1 CLA      0.064300
     68 HMD1       72.3932   57.3244   36.8671 dc         1 CLA      0.064300
     69 HMC3       75.6310   60.3824   44.3509 dc         1 CLA      0.052100
     70 HMC2       74.6670   61.7675   43.6797 dc         1 CLA      0.052100
     71 HMC1       73.8902   60.3272   44.2730 dc         1 CLA      0.052100
     72 HMB3       81.8306   63.7298   41.2875 dc         1 CLA      0.063600
     73 HMB2       82.5562   62.4625   40.3552 dc         1 CLA      0.063600
     74 HMB1       81.5215   63.6473   39.5866 dc         1 CLA      0.063600
     75 HMA3       82.0148   58.2362   37.1519 dc         1 CLA      0.058300
     76 HMA2       83.0911   58.8663   35.8979 dc         1 CLA      0.058300
     77 HMA1       82.8116   59.6793   37.4202 dc         1 CLA      0.058300
     78 HED3       80.5204   55.3374   35.2204 dc         1 CLA      0.079300
     79 HED2       79.6683   54.5159   36.4298 dc         1 CLA      0.079300
     80 HED1       79.5051   53.8121   34.8463 dc         1 CLA      0.079300
     81 HBC3       73.3028   56.6637   41.1575 dc         1 CLA      0.016300
     82 HBC2       73.9498   56.7788   42.8186 dc         1 CLA      0.016300
     83 HBC1       72.1038   56.7111   42.5282 dc         1 CLA      0.016300
     84 HBB2       80.2843   63.6726   44.5948 da         1 CLA      0.183000
     85 HBB1       81.3951   62.6405   43.5213 da         1 CLA      0.183000
     86 HBA2       81.7394   59.7435   31.9982 dc         1 CLA      0.029400
     87 HBA1       82.4983   59.4785   33.5191 dc         1 CLA      0.029400
     88 HAC2       72.5601   59.1603   42.7612 dc         1 CLA      0.029300
     89 HAC1       72.2192   58.6444   41.1645 dc         1 CLA      0.029300
     90 HAA2       79.4618   59.0038   33.2383 dc         1 CLA      0.028700
     91 HAA1       79.9724   60.5785   33.8113 dc         1 CLA      0.028700
     92 H203       84.2320   57.4016   48.8369 dc         1 CLA      0.065600
     93 H202       85.7845   56.8898   48.7493 dc         1 CLA      0.065600
     94 H201       85.5241   58.5278   49.5167 dc         1 CLA      0.065600
     95 H193       84.8348   60.4473   46.5918 dc         1 CLA      0.065600
     96 H192       83.7796   59.9242   47.8098 dc         1 CLA      0.065600
     97 H191       85.4454   60.3690   48.1126 dc         1 CLA      0.065600
     98 H172       83.9519   57.0979   46.3344 dc         1 CLA      0.027600
     99 H171       85.6374   56.7124   46.1787 dc         1 CLA      0.027600
    100 H162       84.2640   58.7295   44.7600 dc         1 CLA      0.002900
    101 H161       84.8263   57.1187   44.1789 dc         1 CLA      0.002900
    102 H152       87.2049   57.7754   44.7762 dc         1 CLA      0.029100
    103 H151       86.6452   59.4216   45.0532 dc         1 CLA      0.029100
    104 H143       87.9936   60.4950   41.7530 dc         1 CLA      0.063600
    105 H142       87.4475   60.9821   43.3468 dc         1 CLA      0.063600
    106 H141       88.7485   59.8313   43.1015 dc         1 CLA      0.063600
    107 H122       85.8283   57.2816   42.0744 dc         1 CLA      0.032500
    108 H121       87.5402   57.2828   42.1810 dc         1 CLA      0.032500
    109 H112       87.5133   58.8041   40.1714 dc         1 CLA      0.006600
    110 H111       85.7982   58.8430   40.3862 dc         1 CLA      0.006600
    111 H102       85.3605   56.7268   39.7832 dc         1 CLA      0.024100
    112 H101       87.1148   56.2379   39.8766 dc         1 CLA      0.024100
    113 HHD        73.2963   57.9280   39.2294 da         1 CLA      0.174300
    114 HHC        76.9710   61.9238   42.6273 da         1 CLA      0.136800
    115 HHB        81.5852   61.4743   38.2168 da         1 CLA      0.138300
    116 HBD        77.4197   58.0998   33.5182 dc         1 CLA      0.107700
    117 HAB        78.5617   63.7365   43.0131 da         1 CLA      0.155200
    118 H93        88.3565   56.4613   37.4651 dc         1 CLA      0.069500
    119 H92        87.6330   57.7472   36.5295 dc         1 CLA      0.069500
    120 H91        88.3647   58.1161   38.0683 dc         1 CLA      0.069500
    121 H8         85.6991   57.9863   37.9020 dc         1 CLA      0.029300
    122 H72        84.7291   55.7863   37.4727 dc         1 CLA      0.044400
    123 H71        86.1719   54.9380   37.5919 dc         1 CLA      0.044400
    124 H62        87.0014   55.9487   35.4904 dc         1 CLA      0.015600
    125 H61        85.3921   56.8616   35.4851 dc         1 CLA      0.015600
    126 H52        86.0600   53.8095   35.6373 dc         1 CLA      0.033200
    127 H51        85.7636   54.6882   34.0388 dc         1 CLA      0.033200
    128 H43        83.7930   52.9123   36.8981 dc         1 CLA      0.037000
    129 H42        82.7043   52.6165   35.6663 dc         1 CLA      0.037000
    130 H41        84.3596   52.2122   35.2799 dc         1 CLA      0.037000
    131 H3A        81.4184   60.8025   35.6906 dc         1 CLA      0.041100
    132 H2A        80.5365   58.0006   35.3198 dc         1 CLA      0.083100
    133 H2         82.7503   55.9207   35.7386 da         1 CLA      0.180900
    134 H18        86.5203   58.4323   47.4477 dc         1 CLA     -0.003900
    135 H13        85.7475   59.6638   42.7768 dc         1 CLA      0.019700
    136 H12        81.9143   55.0907   33.0962 dc         1 CLA      0.120400
    137 H11        83.6131   55.4737   32.9076 dc         1 CLA      0.120400
    138 C1         69.5080   61.6436   49.6274 Z1         2 LUT      0.509236
    139 C2         68.1051   61.5894   50.3255 Z2         2 LUT     -0.434695
    140 C3         67.2185   62.8986   50.4568 Z3         2 LUT      0.437453
    141 O3         66.9494   62.9129   51.8869 S1         2 LUT     -0.547129
    142 C4         67.9425   64.0809   49.8653 Z4         2 LUT     -0.468603
    143 C5         68.7138   63.8008   48.5541 Z5         2 LUT      0.279246
    144 C6         69.4776   62.6934   48.4812 Z6         2 LUT     -0.305473
    145 C7         69.8860   62.2567   47.1372 Z7         2 LUT      0.069402
    146 C8         70.5327   63.0583   46.2560 Z8         2 LUT     -0.191631
    147 C9         71.0094   62.6569   44.9182 Z9         2 LUT      0.196698
    148 C10        71.9265   63.5266   44.2712 Y1         2 LUT     -0.208611
    149 C11        72.5776   63.4446   42.9887 Y2         2 LUT      0.030784
    150 C12        73.6272   64.2843   42.7311 Y3         2 LUT     -0.220316
    151 C13        74.5834   64.2720   41.6505 Y4         2 LUT      0.215937
    152 C14        75.7436   65.0421   41.8434 Y5         2 LUT     -0.185793
    153 C15        76.8837   65.0711   41.0057 Y6         2 LUT     -0.057835
    154 C16        69.8681   60.1797   49.2637 Y7         2 LUT     -0.405615
    155 C17        70.3963   62.1326   50.8572 Y7         2 LUT     -0.405615
    156 C18        68.1647   64.6022   47.4136 Y9         2 LUT     -0.369639
    157 C19        70.4576   61.4762   44.2114 W1         2 LUT     -0.333362
    158 C20        74.1863   63.5495   40.4226 W2         2 LUT     -0.323439
    159 C21        88.5940   66.6178   35.6199 Z1         2 LUT      0.406104
    160 C22        89.2632   65.9906   34.3743 Z2         2 LUT     -0.404965
    161 C23        89.3645   66.8839   33.1355 Z3         2 LUT      0.391255
    162 O23        89.9018   66.1084   32.0207 S1         2 LUT     -0.528210
    163 C24        88.0249   67.4940   32.8956 W6         2 LUT     -0.258361
    164 C25        87.0361   67.6561   33.7713 Z5         2 LUT      0.133546
    165 C26        87.1102   66.9616   35.1577 W8         2 LUT     -0.147008
    166 C27        86.3560   67.7534   36.2187 Z7         2 LUT      0.023843
    167 C28        85.2032   67.3577   36.7681 Z8         2 LUT     -0.216987
    168 C29        84.5850   67.7370   38.0743 Z9         2 LUT      0.206524
    169 C30        83.4552   67.0891   38.4688 Y1         2 LUT     -0.215556
    170 C31        82.6369   67.1210   39.6328 Y2         2 LUT      0.025142
    171 C32        81.4026   66.5088   39.6448 Y3         2 LUT     -0.212209
    172 C33        80.4558   66.5730   40.7753 Y4         2 LUT      0.240937
    173 C34        79.2943   65.8693   40.4781 Y5         2 LUT     -0.218862
    174 C35        78.0687   65.7865   41.2764 Y6         2 LUT     -0.023547
    175 C36        89.5203   67.7986   36.0614 Y7         2 LUT     -0.393485
    176 C37        88.6395   65.6950   36.8322 Y7         2 LUT     -0.393485
    177 C38        85.7216   68.3677   33.4197 Y9         2 LUT     -0.387526
    178 C39        85.3103   68.7266   39.0053 W1         2 LUT     -0.322618
    179 C40        80.7573   67.4531   41.9478 W2         2 LUT     -0.358472
    180 H403       80.9280   68.5634   41.8708 R7         2 LUT      0.097720
    181 H402       80.0528   67.3641   42.7434 R7         2 LUT      0.097720
    182 H401       81.5874   66.8800   42.3320 R7         2 LUT      0.097720
    183 H393       84.6511   69.4589   39.5098 R4         2 LUT      0.082505
    184 H392       85.7625   68.1255   39.8318 R4         2 LUT      0.082505
    185 H391       86.0933   69.3467   38.4607 R4         2 LUT      0.082505
    186 H383       85.0408   67.5924   33.0293 R1         2 LUT      0.104030
    187 H382       85.2183   69.0286   34.1182 R1         2 LUT      0.104030
    188 H381       85.9814   68.8875   32.4915 R1         2 LUT      0.104030
    189 H373       88.1536   64.8133   36.5051 T4         2 LUT      0.089537
    190 H372       89.6419   65.4952   37.2585 T4         2 LUT      0.089537
    191 H371       87.9789   66.0847   37.6263 T4         2 LUT      0.089537
    192 H363       89.0649   68.3538   36.9189 T4         2 LUT      0.089537
    193 H362       90.6051   67.5660   36.2648 T4         2 LUT      0.089537
    194 H361       89.6322   68.5097   35.3115 T4         2 LUT      0.089537
    195 H222       90.2759   65.6226   34.5728 U2         2 LUT      0.127376
    196 H221       88.7357   65.0677   34.0242 U2         2 LUT      0.127376
    197 H203       74.7688   64.0314   39.5804 R7         2 LUT      0.087068
    198 H202       74.5971   62.4868   40.4314 R7         2 LUT      0.087068
    199 H201       73.1056   63.6220   40.1758 R7         2 LUT      0.087068
    200 H193       69.6980   60.9886   44.7959 R4         2 LUT      0.089716
    201 H192       70.1815   61.7354   43.1959 R4         2 LUT      0.089716
    202 H191       71.1938   60.7457   43.9870 R4         2 LUT      0.089716
    203 H183       67.0408   64.6785   47.5213 R1         2 LUT      0.094572
    204 H182       68.4414   65.6899   47.4277 R1         2 LUT      0.094572
    205 H181       68.3026   64.1233   46.4668 R1         2 LUT      0.094572
    206 H173       70.7325   61.3349   51.5171 T4         2 LUT      0.093752
    207 H172       71.2347   62.6498   50.4572 T4         2 LUT      0.093752
    208 H171       69.9894   62.8843   51.4671 T4         2 LUT      0.093752
    209 H163       70.7596   60.1354   48.6841 T4         2 LUT      0.093752
    210 H162       70.0025   59.5888   50.2537 T4         2 LUT      0.093752
    211 H161       69.2206   59.6544   48.5832 T4         2 LUT      0.093752
    212 HO3        66.0183   62.7547   52.1031 Q1         2 LUT      0.300121
    213 H8         70.8950   64.0826   46.5407 U7         2 LUT      0.080784
    214 H7         69.6057   61.2299   46.7924 U6         2 LUT      0.042190
    215 H42        67.1697   64.8408   49.6459 U5         2 LUT      0.145166
    216 H41        68.5898   64.4803   50.6902 U5         2 LUT      0.145166
    217 H35        78.1901   66.4010   42.1019 T3         2 LUT      0.077919
    218 H34        79.2904   65.3665   39.4637 T2         2 LUT      0.073626
    219 H32        81.3190   65.8284   38.8322 T1         2 LUT      0.092510
    220 H31        82.9640   67.7194   40.4767 U9         2 LUT      0.070048
    221 H30        83.0423   66.4280   37.6551 U8         2 LUT      0.085442
    222 H3         66.3437   62.6681   49.8512 U3         2 LUT     -0.031596
    223 H28        84.6389   66.7621   36.1101 U7         2 LUT      0.084728
    224 H27        86.9545   68.4878   36.8404 U6         2 LUT      0.087291
    225 H26        86.5871   65.9772   34.9895 Q6         2 LUT      0.075325
    226 H24        87.8895   67.9527   31.9139 Q5         2 LUT      0.094482
    227 H23        89.9771   67.7853   33.2406 U3         2 LUT     -0.024869
    228 H22        67.4484   60.7953   49.7643 U2         2 LUT      0.127376
    229 H21        68.2713   61.1884   51.3468 U2         2 LUT      0.127376
    230 H15        76.9153   64.4440   40.1076 T3         2 LUT      0.093200
    231 H14        75.8707   65.7491   42.6847 T2         2 LUT      0.068865
    232 H12        73.8178   64.9656   43.4752 T1         2 LUT      0.095507
    233 H11        72.2848   62.7216   42.1761 U9         2 LUT      0.068930
    234 H10        72.1367   64.3659   44.9237 U8         2 LUT      0.083911
    235 H1         89.6362   66.5587   31.2038 Q1         2 LUT      0.297311
@<TRIPOS>BOND
    1     6     1 1
    2     7     2 1
    3     8     3 1
    4     9     4 1
    5    11     4 1
    6    12     6 1
    7    13     9 1
    8    16     9 1
    9    25     5 1
   10    25    16 1
   11    26    10 1
   12    26    17 1
   13    27    18 1
   14    28    14 1
   15    28    19 1
   16    29    12 1
   17    30    13 1
   18    31    24 1
   19    32     1 1
   20    32    25 1
   21    33    21 1
   22    33    26 1
   23    34    22 1
   24    34    27 1
   25    35    23 1
   26    35    28 1
   27    36    12 1
   28    36    24 1
   29    37    13 1
   30    37    15 1
   31    38    31 1
   32    39    20 1
   33    39    32 1
   34    40     2 1
   35    40    33 1
   36    41     3 1
   37    41    34 1
   38    42     4 1
   39    42    35 1
   40    43    38 1
   41    44     5 1
   42    44    17 1
   43    44    39 1
   44    45    10 1
   45    45    18 1
   46    45    40 1
   47    46    19 1
   48    46    41 1
   49    47    14 1
   50    47    16 1
   51    47    42 1
   52    48    38 1
   53    49    48 1
   54    50    49 1
   55    51    50 1
   56    52    51 1
   57    53    51 1
   58    54    53 1
   59    55    54 1
   60    56    55 1
   61    57    56 1
   62    58    56 1
   63    59    58 1
   64    60    59 1
   65    61    60 1
   66    62    61 1
   67    63    61 1
   68    64    27 1
   69    64    46 1
   70    65     5 1
   71    65    10 1
   72    65    64 1
   73    65    14 1
   74    66    23 1
   75    67    23 1
   76    68    23 1
   77    69    22 1
   78    70    22 1
   79    71    22 1
   80    72    21 1
   81    73    21 1
   82    74    21 1
   83    75    20 1
   84    76    20 1
   85    77    20 1
   86    78    15 1
   87    79    15 1
   88    80    15 1
   89    81     8 1
   90    82     8 1
   91    83     8 1
   92    84     7 1
   93    85     7 1
   94    86     6 1
   95    87     6 1
   96    88     3 1
   97    89     3 1
   98    90     1 1
   99    91     1 1
  100    92    63 1
  101    93    63 1
  102    94    63 1
  103    95    62 1
  104    96    62 1
  105    97    62 1
  106    98    60 1
  107    99    60 1
  108   100    59 1
  109   101    59 1
  110   102    58 1
  111   103    58 1
  112   104    57 1
  113   105    57 1
  114   106    57 1
  115   107    55 1
  116   108    55 1
  117   109    54 1
  118   110    54 1
  119   111    53 1
  120   112    53 1
  121   113    19 1
  122   114    18 1
  123   115    17 1
  124   116     9 1
  125   117     2 1
  126   118    52 1
  127   119    52 1
  128   120    52 1
  129   121    51 1
  130   122    50 1
  131   123    50 1
  132   124    49 1
  133   125    49 1
  134   126    48 1
  135   127    48 1
  136   128    43 1
  137   129    43 1
  138   130    43 1
  139   131    39 1
  140   132    32 1
  141   133    31 1
  142   134    61 1
  143   135    56 1
  144   136    24 1
  145   137    24 1
  146   139   138 1
  147   140   139 1
  148   141   140 1
  149   142   140 1
  150   143   142 1
  151   144   138 1
  152   144   143 1
  153   145   144 1
  154   146   145 1
  155   147   146 1
  156   148   147 1
  157   149   148 1
  158   150   149 1
  159   151   150 1
  160   152   151 1
  161   153   152 1
  162   154   138 1
  163   155   138 1
  164   156   143 1
  165   157   147 1
  166   158   151 1
  167   160   159 1
  168   161   160 1
  169   162   161 1
  170   163   161 1
  171   164   163 1
  172   165   159 1
  173   165   164 1
  174   166   165 1
  175   167   166 1
  176   168   167 1
  177   169   168 1
  178   170   169 1
  179   171   170 1
  180   172   171 1
  181   173   172 1
  182   174   153 1
  183   174   173 1
  184   175   159 1
  185   176   159 1
  186   177   164 1
  187   178   168 1
  188   179   172 1
  189   180   179 1
  190   181   179 1
  191   182   179 1
  192   183   178 1
  193   184   178 1
  194   185   178 1
  195   186   177 1
  196   187   177 1
  197   188   177 1
  198   189   176 1
  199   190   176 1
  200   191   176 1
  201   192   175 1
  202   193   175 1
  203   194   175 1
  204   195   160 1
  205   196   160 1
  206   197   158 1
  207   198   158 1
  208   199   158 1
  209   200   157 1
  210   201   157 1
  211   202   157 1
  212   203   156 1
  213   204   156 1
  214   205   156 1
  215   206   155 1
  216   207   155 1
  217   208   155 1
  218   209   154 1
  219   210   154 1
  220   211   154 1
  221   212   141 1
  222   213   146 1
  223   214   145 1
  224   215   142 1
  225   216   142 1
  226   217   174 1
  227   218   173 1
  228   219   171 1
  229   220   170 1
  230   221   169 1
  231   222   140 1
  232   223   167 1
  233   224   166 1
  234   225   165 1
  235   226   163 1
  236   227   161 1
  237   228   139 1
  238   229   139 1
  239   230   153 1
  240   231   152 1
  241   232   150 1
  242   233   149 1
  243   234   148 1
  244   235   162 1
  245   65    153 1
  246   65    174 1
@<TRIPOS>SUBSTRUCTURE
      1 CLA               1 ****               0 ****  **** 
      2 LUT             138 ****               0 ****  **** 
