@<TRIPOS>MOLECULE
Cpptraj generated mol2 file.
  235   246     2     0     0
SMALL
USER_CHARGES


@<TRIPOS>ATOM
      1 CAA        79.4458   59.3585   33.5229 a2         1 CLA     -0.055900
      2 CAB        79.0135   62.7014   42.5871 c8         1 CLA     -0.148500
      3 CAC        72.2433   58.3916   41.6791 a2         1 CLA     -0.012600
      4 CAD        75.3113   56.4924   34.2939 ck         1 CLA      0.398800
      5 NA         78.3210   59.2245   36.9894 ns         1 CLA     -0.225500
      6 CBA        80.7150   59.4605   32.7054 a2         1 CLA     -0.135000
      7 CBB        80.1176   62.8661   43.3072 c0         1 CLA     -0.395200
      8 CBC        72.2053   56.8291   41.6372 a3         1 CLA     -0.037700
      9 CBD        76.6993   57.2541   34.0362 a1         1 CLA     -0.053900
     10 NB         78.0364   60.6592   39.4926 nm         1 CLA     -0.295700
     11 OBD        74.7855   55.8171   33.4446 o2         1 CLA     -0.494600
     12 CGA        81.2505   58.1521   32.1092 c4         1 CLA      0.827000
     13 CGD        77.7687   56.2380   33.6421 c4         1 CLA      0.655300
     14 ND         75.4451   58.4024   37.2949 nm         1 CLA     -0.291600
     15 CED        78.2817   54.0320   33.8382 a3         1 CLA      0.005400
     16 CHA        77.0327   57.9822   35.3638 cs         1 CLA     -0.123800
     17 CHB        79.9791   60.6832   38.0152 aa         1 CLA     -0.291900
     18 CHC        76.6283   60.8835   41.4397 aa         1 CLA     -0.090400
     19 CHD        73.5947   58.1767   38.8446 aa         1 CLA     -0.052000
     20 CMA        81.8538   58.6513   36.1341 a3         1 CLA     -0.230700
     21 CMB        81.2137   62.6140   40.1002 a3         1 CLA     -0.180800
     22 CMC        74.0887   60.4068   43.3424 a3         1 CLA     -0.134000
     23 CMD        72.3900   56.4094   36.2867 a3         1 CLA     -0.141100
     24 C1         82.0737   55.9615   32.5560 a2         1 CLA      0.023000
     25 C1A        78.1738   58.6751   35.7436 ac         1 CLA     -0.015100
     26 C1B        79.3007   61.0606   39.1663 cr         1 CLA      0.054700
     27 C1C        75.5097   60.1363   41.0406 cn         1 CLA     -0.005600
     28 C1D        74.2251   57.8944   37.5972 ap         1 CLA     -0.047300
     29 O1A        81.4364   58.0033   30.9238 o2         1 CLA     -0.610800
     30 O1D        78.3888   56.2827   32.5903 o2         1 CLA     -0.558200
     31 C2         82.4700   55.0425   33.7206 c8         1 CLA     -0.325100
     32 C2A        79.4996   58.7538   34.9136 a1         1 CLA      0.098600
     33 C2B        79.8311   61.9497   40.2659 cb         1 CLA      0.088500
     34 C2C        74.3120   59.9976   41.8749 cb         1 CLA      0.053700
     35 C2D        73.7411   57.0673   36.4192 cb         1 CLA      0.058900
     36 O2A        81.4424   57.1878   33.0050 o1         1 CLA     -0.437200
     37 O2D        77.8511   55.2337   34.5235 o1         1 CLA     -0.357600
     38 C3         83.1575   53.9194   33.5350 c5         1 CLA      0.031200
     39 C3A        80.5079   59.5379   35.8361 a1         1 CLA      0.166800
     40 C3B        78.9070   61.8842   41.3004 cb         1 CLA      0.035000
     41 C3C        73.4936   59.0637   41.1821 cb         1 CLA     -0.089900
     42 C3D        74.9250   57.0080   35.5685 cb         1 CLA     -0.035900
     43 C4         82.5853   52.5138   33.3175 a3         1 CLA     -0.053300
     44 C4A        79.6077   59.7773   37.0474 ac         1 CLA      0.001800
     45 C4B        77.7546   61.1507   40.7025 cn         1 CLA     -0.020900
     46 C4C        74.1142   58.9516   39.8737 cr         1 CLA     -0.044400
     47 C4D        75.8685   57.8306   36.1490 c6         1 CLA     -0.046000
     48 C5         84.6725   53.9120   33.3665 a2         1 CLA     -0.070400
     49 C6         85.3838   55.0864   33.9963 a2         1 CLA      0.043900
     50 C7         85.6557   54.9686   35.4968 a2         1 CLA     -0.150000
     51 C8         85.9126   56.3716   36.2395 a1         1 CLA      0.064200
     52 C9         87.3263   56.8471   35.7634 a3         1 CLA     -0.259300
     53 C10        85.8223   56.3487   37.7110 a2         1 CLA     -0.071900
     54 C11        86.0896   57.6578   38.4747 a2         1 CLA      0.014500
     55 C12        86.0391   57.3992   39.9567 a2         1 CLA     -0.112100
     56 C13        86.1075   58.6761   40.8633 a1         1 CLA      0.089200
     57 C14        87.5301   59.3104   40.7581 a3         1 CLA     -0.239100
     58 C15        85.7515   58.3106   42.3795 a2         1 CLA     -0.102200
     59 C16        85.7146   59.3924   43.5195 a2         1 CLA      0.023900
     60 C17        85.7803   58.6965   44.8670 a2         1 CLA     -0.105700
     61 C18        85.6347   59.6067   46.1504 a1         1 CLA      0.206800
     62 C19        84.3991   60.5054   46.1479 a3         1 CLA     -0.280100
     63 C20        85.6025   58.7543   47.4376 a3         1 CLA     -0.280100
     64 NC         75.3589   59.5756   39.8113 nx         1 CLA     -0.309200
     65 MG         76.7777   59.6402   38.3024 mg         1 CLA      0.895000
     66 HMD3       72.2938   55.6492   37.0635 dc         1 CLA      0.064300
     67 HMD2       71.6483   57.1395   36.4808 dc         1 CLA      0.064300
     68 HMD1       72.3277   55.9320   35.3539 dc         1 CLA      0.064300
     69 HMC3       73.1810   61.0047   43.3908 dc         1 CLA      0.052100
     70 HMC2       74.1012   59.5553   44.0429 dc         1 CLA      0.052100
     71 HMC1       74.8731   60.9932   43.7163 dc         1 CLA      0.052100
     72 HMB3       81.4031   62.8336   39.0414 dc         1 CLA      0.063600
     73 HMB2       81.1051   63.4538   40.7575 dc         1 CLA      0.063600
     74 HMB1       81.9605   61.9281   40.4386 dc         1 CLA      0.063600
     75 HMA3       81.6095   57.6442   36.4738 dc         1 CLA      0.058300
     76 HMA2       82.2763   58.6200   35.1545 dc         1 CLA      0.058300
     77 HMA1       82.5654   59.1023   36.8378 dc         1 CLA      0.058300
     78 HED3       77.8445   53.8073   32.8265 dc         1 CLA      0.079300
     79 HED2       79.3131   54.0289   33.6287 dc         1 CLA      0.079300
     80 HED1       78.1172   53.1875   34.5203 dc         1 CLA      0.079300
     81 HBC3       72.9988   56.4344   42.2994 dc         1 CLA      0.016300
     82 HBC2       71.2217   56.5250   41.8709 dc         1 CLA      0.016300
     83 HBC1       72.3703   56.4334   40.6696 dc         1 CLA      0.016300
     84 HBB2       80.1819   63.5513   44.1183 da         1 CLA      0.183000
     85 HBB1       81.1120   62.4289   43.0417 da         1 CLA      0.183000
     86 HBA2       80.4971   60.0471   31.8818 dc         1 CLA      0.029400
     87 HBA1       81.5681   59.9812   33.1217 dc         1 CLA      0.029400
     88 HAC2       71.9958   58.7067   42.6525 dc         1 CLA      0.029300
     89 HAC1       71.3746   58.6948   41.1147 dc         1 CLA      0.029300
     90 HAA2       78.7377   58.8710   32.9519 dc         1 CLA      0.028700
     91 HAA1       78.9432   60.4123   33.6753 dc         1 CLA      0.028700
     92 H203       85.7916   59.4056   48.2615 dc         1 CLA      0.065600
     93 H202       84.6584   58.1946   47.4799 dc         1 CLA      0.065600
     94 H201       86.4448   58.1477   47.4154 dc         1 CLA      0.065600
     95 H193       84.6736   61.3871   45.6120 dc         1 CLA      0.065600
     96 H192       83.5316   60.1981   45.6037 dc         1 CLA      0.065600
     97 H191       84.1924   60.8073   47.2140 dc         1 CLA      0.065600
     98 H172       85.1548   57.8154   44.8816 dc         1 CLA      0.027600
     99 H171       86.8107   58.3823   44.9115 dc         1 CLA      0.027600
    100 H162       86.5302   60.1585   43.4259 dc         1 CLA      0.002900
    101 H161       84.7377   59.8737   43.5000 dc         1 CLA      0.002900
    102 H152       84.7971   57.8066   42.4033 dc         1 CLA      0.029100
    103 H151       86.4366   57.6102   42.8077 dc         1 CLA      0.029100
    104 H143       87.8054   59.5192   39.7247 dc         1 CLA      0.063600
    105 H142       87.4772   60.3424   41.0769 dc         1 CLA      0.063600
    106 H141       88.3162   58.8866   41.3885 dc         1 CLA      0.063600
    107 H122       85.1576   56.8965   40.2714 dc         1 CLA      0.032500
    108 H121       86.8739   56.8377   40.2597 dc         1 CLA      0.032500
    109 H112       87.0152   58.0643   38.1141 dc         1 CLA      0.006600
    110 H111       85.2316   58.3492   38.2504 dc         1 CLA      0.006600
    111 H102       84.8761   56.0208   38.0542 dc         1 CLA      0.024100
    112 H101       86.5842   55.6007   37.9466 dc         1 CLA      0.024100
    113 HHD        72.5895   57.8848   39.1568 da         1 CLA      0.174300
    114 HHC        76.6796   61.1635   42.5198 da         1 CLA      0.136800
    115 HHB        80.9751   61.0343   37.8071 da         1 CLA      0.138300
    116 HBD        76.6076   58.0586   33.2582 dc         1 CLA      0.107700
    117 HAB        78.1236   63.1224   42.9736 da         1 CLA      0.155200
    118 H93        87.4777   57.8793   36.0400 dc         1 CLA      0.069500
    119 H92        88.1688   56.3356   36.2642 dc         1 CLA      0.069500
    120 H91        87.3876   56.9467   34.6610 dc         1 CLA      0.069500
    121 H8         85.1683   57.0752   35.8674 dc         1 CLA      0.029300
    122 H72        84.7849   54.4972   35.8591 dc         1 CLA      0.044400
    123 H71        86.4709   54.3588   35.7046 dc         1 CLA      0.044400
    124 H62        86.4055   55.2193   33.4941 dc         1 CLA      0.015600
    125 H61        84.8302   56.0286   33.8622 dc         1 CLA      0.015600
    126 H52        85.1744   53.0916   33.7904 dc         1 CLA      0.033200
    127 H51        84.8827   53.9156   32.2637 dc         1 CLA      0.033200
    128 H43        81.5360   52.5599   33.4780 dc         1 CLA      0.037000
    129 H42        82.7440   52.2798   32.2774 dc         1 CLA      0.037000
    130 H41        83.0242   51.7934   34.0297 dc         1 CLA      0.037000
    131 H3A        80.7708   60.4290   35.2759 dc         1 CLA      0.041100
    132 H2A        79.8120   57.7119   34.9109 dc         1 CLA      0.083100
    133 H2         82.4991   55.4136   34.7442 da         1 CLA      0.180900
    134 H18        86.4904   60.2766   46.1894 dc         1 CLA     -0.003900
    135 H13        85.3978   59.3952   40.5302 dc         1 CLA      0.019700
    136 H12        81.5564   55.3901   31.7244 dc         1 CLA      0.120400
    137 H11        83.0803   56.2637   32.2141 dc         1 CLA      0.120400
    138 C1         68.8117   61.4719   48.7579 Z1         2 LUT      0.509236
    139 C2         67.3985   61.3515   49.3752 Z2         2 LUT     -0.434695
    140 C3         66.8135   62.6188   49.9779 Z3         2 LUT      0.437453
    141 O3         67.2835   62.9444   51.3016 S1         2 LUT     -0.547129
    142 C4         67.0510   63.8069   49.0045 Z4         2 LUT     -0.468603
    143 C5         67.8350   63.5923   47.7067 Z5         2 LUT      0.279246
    144 C6         68.7072   62.5524   47.6176 Z6         2 LUT     -0.305473
    145 C7         69.1605   62.1162   46.2507 Z7         2 LUT      0.069402
    146 C8         69.8058   62.8737   45.2604 Z8         2 LUT     -0.191631
    147 C9         70.3996   62.4963   44.0147 Z9         2 LUT      0.196698
    148 C10        71.4837   63.3083   43.5880 Y1         2 LUT     -0.208611
    149 C11        72.3723   63.2700   42.4564 Y2         2 LUT      0.030784
    150 C12        73.5540   63.9453   42.3556 Y3         2 LUT     -0.220316
    151 C13        74.4295   63.9690   41.1840 Y4         2 LUT      0.215937
    152 C14        75.6884   64.5105   41.3388 Y5         2 LUT     -0.185793
    153 C15        76.8189   64.6153   40.4879 Y6         2 LUT     -0.057835
    154 C16        69.4250   60.0984   48.3742 Y7         2 LUT     -0.405615
    155 C17        69.8086   62.1540   49.8055 Y7         2 LUT     -0.405615
    156 C18        67.2987   64.4088   46.5635 Y9         2 LUT     -0.369639
    157 C19        69.8910   61.2618   43.3791 W1         2 LUT     -0.333362
    158 C20        74.0231   63.4158   39.8546 W2         2 LUT     -0.323439
    159 C21        88.3184   66.0912   34.3562 Z1         2 LUT      0.406104
    160 C22        89.1019   65.5993   33.1231 Z2         2 LUT     -0.404965
    161 C23        89.2418   66.6637   32.0121 Z3         2 LUT      0.391255
    162 O23        89.9185   66.1590   30.8398 S1         2 LUT     -0.528210
    163 C24        87.9890   67.5237   31.7966 W6         2 LUT     -0.258361
    164 C25        86.8645   67.4626   32.5414 Z5         2 LUT      0.133546
    165 C26        86.7983   66.5560   33.7576 W8         2 LUT     -0.147008
    166 C27        85.9715   67.1618   34.8596 Z7         2 LUT      0.023843
    167 C28        84.7535   66.9114   35.2332 Z8         2 LUT     -0.216987
    168 C29        84.0862   67.3673   36.4424 Z9         2 LUT      0.206524
    169 C30        82.9941   66.6484   36.8775 Y1         2 LUT     -0.215556
    170 C31        82.0779   66.9318   38.0125 Y2         2 LUT      0.025142
    171 C32        81.1093   66.0604   38.4727 Y3         2 LUT     -0.212209
    172 C33        80.1055   66.1470   39.5021 Y4         2 LUT      0.240937
    173 C34        78.9877   65.3906   39.6290 Y5         2 LUT     -0.218862
    174 C35        77.9708   65.3097   40.6655 Y6         2 LUT     -0.023547
    175 C36        89.1919   67.1605   35.0140 Y7         2 LUT     -0.393485
    176 C37        88.3192   65.0475   35.5293 Y7         2 LUT     -0.393485
    177 C38        85.5823   68.2334   32.1660 Y9         2 LUT     -0.387526
    178 C39        84.6466   68.4468   37.3942 W1         2 LUT     -0.322618
    179 C40        80.7048   66.8291   40.7187 W2         2 LUT     -0.358472
    180 H403       80.1028   66.6410   41.5953 R7         2 LUT      0.097720
    181 H402       81.7089   66.5190   41.0415 R7         2 LUT      0.097720
    182 H401       80.6017   67.8947   40.5537 R7         2 LUT      0.097720
    183 H393       85.3128   68.0528   38.1023 R4         2 LUT      0.082505
    184 H392       85.1512   69.3101   36.8934 R4         2 LUT      0.082505
    185 H391       83.8990   69.0168   37.9893 R4         2 LUT      0.082505
    186 H383       84.7081   67.6204   32.3989 R1         2 LUT      0.104030
    187 H382       85.4450   69.0861   32.7384 R1         2 LUT      0.104030
    188 H381       85.6199   68.4609   31.1294 R1         2 LUT      0.104030
    189 H373       87.7236   64.2342   35.3293 T4         2 LUT      0.089537
    190 H372       89.3808   64.6806   35.7941 T4         2 LUT      0.089537
    191 H371       87.8587   65.4641   36.4388 T4         2 LUT      0.089537
    192 H363       89.2811   67.9789   34.3322 T4         2 LUT      0.089537
    193 H362       88.6545   67.5275   35.9196 T4         2 LUT      0.089537
    194 H361       90.2032   66.7987   35.2010 T4         2 LUT      0.089537
    195 H222       90.1590   65.4696   33.4460 U2         2 LUT      0.127376
    196 H221       88.8046   64.6921   32.6711 U2         2 LUT      0.127376
    197 H203       74.0890   62.3021   39.8922 R7         2 LUT      0.087068
    198 H202       73.0285   63.5751   39.5257 R7         2 LUT      0.087068
    199 H201       74.6029   63.7700   39.0103 R7         2 LUT      0.087068
    200 H193       70.1845   60.4047   43.9575 R4         2 LUT      0.089716
    201 H192       68.8315   61.3791   43.2633 R4         2 LUT      0.089716
    202 H191       70.2802   61.0569   42.3627 R4         2 LUT      0.089716
    203 H183       66.4717   65.0204   46.7330 R1         2 LUT      0.094572
    204 H182       68.0179   65.2463   46.3713 R1         2 LUT      0.094572
    205 H181       67.1823   63.8744   45.6214 R1         2 LUT      0.094572
    206 H173       70.7962   62.0469   49.4881 T4         2 LUT      0.093752
    207 H172       69.5637   63.2710   49.9370 T4         2 LUT      0.093752
    208 H171       69.6576   61.6994   50.7305 T4         2 LUT      0.093752
    209 H163       68.8018   59.5648   47.6850 T4         2 LUT      0.093752
    210 H162       70.4173   60.1886   47.9755 T4         2 LUT      0.093752
    211 H161       69.3901   59.2853   49.1257 T4         2 LUT      0.093752
    212 HO3        66.9709   62.2993   51.9785 Q1         2 LUT      0.300121
    213 H8         70.1387   63.8473   45.6351 U7         2 LUT      0.080784
    214 H7         68.9653   61.0985   46.0943 U6         2 LUT      0.042190
    215 H42        66.0156   64.2931   48.7620 U5         2 LUT      0.145166
    216 H41        67.4644   64.6710   49.5313 U5         2 LUT      0.145166
    217 H35        78.0329   65.8825   41.5848 T3         2 LUT      0.077919
    218 H34        78.8897   64.6107   38.8639 T2         2 LUT      0.073626
    219 H32        81.1879   65.1282   37.8130 T1         2 LUT      0.092510
    220 H31        82.1604   67.8575   38.5701 U9         2 LUT      0.070048
    221 H30        82.5443   65.9249   36.2351 U8         2 LUT      0.085442
    222 H3         65.7215   62.5671   50.0351 U3         2 LUT     -0.031596
    223 H28        84.2109   66.2605   34.5600 U7         2 LUT      0.084728
    224 H27        86.6145   67.7362   35.4183 U6         2 LUT      0.087291
    225 H26        86.3015   65.6124   33.4233 Q6         2 LUT      0.075325
    226 H24        87.8893   68.1430   30.8885 Q5         2 LUT      0.094482
    227 H23        90.0230   67.3426   32.4613 U3         2 LUT     -0.024869
    228 H22        66.7278   61.2870   48.5074 U2         2 LUT      0.127376
    229 H21        67.2628   60.5603   50.0539 U2         2 LUT      0.127376
    230 H15        76.6373   64.1071   39.5583 T3         2 LUT      0.093200
    231 H14        75.8953   64.8918   42.3235 T2         2 LUT      0.068865
    232 H12        73.8989   64.4858   43.2132 T1         2 LUT      0.095507
    233 H11        71.9574   62.7171   41.6501 U9         2 LUT      0.068930
    234 H10        71.7850   64.0658   44.2274 U8         2 LUT      0.083911
    235 H1         89.3163   65.7880   30.1288 Q1         2 LUT      0.297311
@<TRIPOS>BOND
    1     6     1 1
    2     7     2 1
    3     8     3 1
    4     9     4 1
    5    11     4 1
    6    12     6 1
    7    13     9 1
    8    16     9 1
    9    25     5 1
   10    25    16 1
   11    26    10 1
   12    26    17 1
   13    27    18 1
   14    28    14 1
   15    28    19 1
   16    29    12 1
   17    30    13 1
   18    31    24 1
   19    32     1 1
   20    32    25 1
   21    33    21 1
   22    33    26 1
   23    34    22 1
   24    34    27 1
   25    35    23 1
   26    35    28 1
   27    36    12 1
   28    36    24 1
   29    37    13 1
   30    37    15 1
   31    38    31 1
   32    39    20 1
   33    39    32 1
   34    40     2 1
   35    40    33 1
   36    41     3 1
   37    41    34 1
   38    42     4 1
   39    42    35 1
   40    43    38 1
   41    44     5 1
   42    44    17 1
   43    44    39 1
   44    45    10 1
   45    45    18 1
   46    45    40 1
   47    46    19 1
   48    46    41 1
   49    47    14 1
   50    47    16 1
   51    47    42 1
   52    48    38 1
   53    49    48 1
   54    50    49 1
   55    51    50 1
   56    52    51 1
   57    53    51 1
   58    54    53 1
   59    55    54 1
   60    56    55 1
   61    57    56 1
   62    58    56 1
   63    59    58 1
   64    60    59 1
   65    61    60 1
   66    62    61 1
   67    63    61 1
   68    64    27 1
   69    64    46 1
   70    65     5 1
   71    65    10 1
   72    65    64 1
   73    65    14 1
   74    66    23 1
   75    67    23 1
   76    68    23 1
   77    69    22 1
   78    70    22 1
   79    71    22 1
   80    72    21 1
   81    73    21 1
   82    74    21 1
   83    75    20 1
   84    76    20 1
   85    77    20 1
   86    78    15 1
   87    79    15 1
   88    80    15 1
   89    81     8 1
   90    82     8 1
   91    83     8 1
   92    84     7 1
   93    85     7 1
   94    86     6 1
   95    87     6 1
   96    88     3 1
   97    89     3 1
   98    90     1 1
   99    91     1 1
  100    92    63 1
  101    93    63 1
  102    94    63 1
  103    95    62 1
  104    96    62 1
  105    97    62 1
  106    98    60 1
  107    99    60 1
  108   100    59 1
  109   101    59 1
  110   102    58 1
  111   103    58 1
  112   104    57 1
  113   105    57 1
  114   106    57 1
  115   107    55 1
  116   108    55 1
  117   109    54 1
  118   110    54 1
  119   111    53 1
  120   112    53 1
  121   113    19 1
  122   114    18 1
  123   115    17 1
  124   116     9 1
  125   117     2 1
  126   118    52 1
  127   119    52 1
  128   120    52 1
  129   121    51 1
  130   122    50 1
  131   123    50 1
  132   124    49 1
  133   125    49 1
  134   126    48 1
  135   127    48 1
  136   128    43 1
  137   129    43 1
  138   130    43 1
  139   131    39 1
  140   132    32 1
  141   133    31 1
  142   134    61 1
  143   135    56 1
  144   136    24 1
  145   137    24 1
  146   139   138 1
  147   140   139 1
  148   141   140 1
  149   142   140 1
  150   143   142 1
  151   144   138 1
  152   144   143 1
  153   145   144 1
  154   146   145 1
  155   147   146 1
  156   148   147 1
  157   149   148 1
  158   150   149 1
  159   151   150 1
  160   152   151 1
  161   153   152 1
  162   154   138 1
  163   155   138 1
  164   156   143 1
  165   157   147 1
  166   158   151 1
  167   160   159 1
  168   161   160 1
  169   162   161 1
  170   163   161 1
  171   164   163 1
  172   165   159 1
  173   165   164 1
  174   166   165 1
  175   167   166 1
  176   168   167 1
  177   169   168 1
  178   170   169 1
  179   171   170 1
  180   172   171 1
  181   173   172 1
  182   174   153 1
  183   174   173 1
  184   175   159 1
  185   176   159 1
  186   177   164 1
  187   178   168 1
  188   179   172 1
  189   180   179 1
  190   181   179 1
  191   182   179 1
  192   183   178 1
  193   184   178 1
  194   185   178 1
  195   186   177 1
  196   187   177 1
  197   188   177 1
  198   189   176 1
  199   190   176 1
  200   191   176 1
  201   192   175 1
  202   193   175 1
  203   194   175 1
  204   195   160 1
  205   196   160 1
  206   197   158 1
  207   198   158 1
  208   199   158 1
  209   200   157 1
  210   201   157 1
  211   202   157 1
  212   203   156 1
  213   204   156 1
  214   205   156 1
  215   206   155 1
  216   207   155 1
  217   208   155 1
  218   209   154 1
  219   210   154 1
  220   211   154 1
  221   212   141 1
  222   213   146 1
  223   214   145 1
  224   215   142 1
  225   216   142 1
  226   217   174 1
  227   218   173 1
  228   219   171 1
  229   220   170 1
  230   221   169 1
  231   222   140 1
  232   223   167 1
  233   224   166 1
  234   225   165 1
  235   226   163 1
  236   227   161 1
  237   228   139 1
  238   229   139 1
  239   230   153 1
  240   231   152 1
  241   232   150 1
  242   233   149 1
  243   234   148 1
  244   235   162 1
  245   65    153 1
  246   65    174 1
@<TRIPOS>SUBSTRUCTURE
      1 CLA               1 ****               0 ****  **** 
      2 LUT             138 ****               0 ****  **** 
