@<TRIPOS>MOLECULE
Cpptraj generated mol2 file.
  235   246     2     0     0
SMALL
USER_CHARGES


@<TRIPOS>ATOM
      1 CAA        78.1098   57.9846   34.9116 a2         1 CLA     -0.055900
      2 CAB        78.0122   62.5394   43.6278 c8         1 CLA     -0.148500
      3 CAC        70.9712   58.4957   43.2273 a2         1 CLA     -0.012600
      4 CAD        73.8562   55.5473   36.4463 ck         1 CLA      0.398800
      5 NA         76.9052   58.9832   38.2200 ns         1 CLA     -0.225500
      6 CBA        79.3354   57.4397   34.1785 a2         1 CLA     -0.135000
      7 CBB        77.0197   63.1462   44.3143 c0         1 CLA     -0.395200
      8 CBC        71.1255   57.0053   43.4241 a3         1 CLA     -0.037700
      9 CBD        75.4134   56.0174   36.1593 a1         1 CLA     -0.053900
     10 NB         76.7513   60.6382   40.7493 nm         1 CLA     -0.295700
     11 OBD        73.2394   54.6522   35.9116 o2         1 CLA     -0.494600
     12 CGA        79.5589   55.8831   34.0685 c4         1 CLA      0.827000
     13 CGD        76.3869   54.9761   36.5580 c4         1 CLA      0.655300
     14 ND         74.0483   58.2209   38.8410 nm         1 CLA     -0.291600
     15 CED        76.9962   53.3510   38.1283 a3         1 CLA      0.005400
     16 CHA        75.6582   57.2498   37.0969 cs         1 CLA     -0.123800
     17 CHB        78.6265   60.4557   39.1413 aa         1 CLA     -0.291900
     18 CHC        75.4088   60.8464   42.8466 aa         1 CLA     -0.090400
     19 CHD        72.1672   58.2871   40.3275 aa         1 CLA     -0.052000
     20 CMA        80.2973   58.0018   37.6545 a3         1 CLA     -0.230700
     21 CMB        80.0294   62.4254   41.1651 a3         1 CLA     -0.180800
     22 CMC        73.1077   60.3132   44.9171 a3         1 CLA     -0.134000
     23 CMD        71.0693   55.8889   38.4430 a3         1 CLA     -0.141100
     24 C1         80.7143   53.9545   35.0027 a2         1 CLA      0.023000
     25 C1A        76.7668   58.0005   37.2209 ac         1 CLA     -0.015100
     26 C1B        78.0719   60.9132   40.3453 cr         1 CLA      0.054700
     27 C1C        74.1843   60.2973   42.4877 cn         1 CLA     -0.005600
     28 C1D        72.7598   57.8256   39.1798 ap         1 CLA     -0.047300
     29 O1A        79.3442   55.1701   33.0891 o2         1 CLA     -0.610800
     30 O1D        77.4045   54.7210   35.8889 o2         1 CLA     -0.558200
     31 C2         80.9183   53.4620   36.4283 c8         1 CLA     -0.325100
     32 C2A        78.1331   57.8226   36.4530 a1         1 CLA      0.098600
     33 C2B        78.6847   61.8181   41.2826 cb         1 CLA      0.088500
     34 C2C        73.0912   59.9541   43.4122 cb         1 CLA      0.053700
     35 C2D        72.3216   56.7362   38.3443 cb         1 CLA      0.058900
     36 O2A        80.3495   55.3974   35.1175 o1         1 CLA     -0.437200
     37 O2D        76.0716   54.3888   37.7341 o1         1 CLA     -0.357600
     38 C3         82.0936   53.5314   37.0898 c5         1 CLA      0.031200
     39 C3A        79.0531   58.8509   37.1445 a1         1 CLA      0.166800
     40 C3B        77.7508   61.9353   42.3714 cb         1 CLA      0.035000
     41 C3C        72.1920   59.1750   42.6934 cb         1 CLA     -0.089900
     42 C3D        73.4176   56.4579   37.5107 cb         1 CLA     -0.035900
     43 C4         82.9863   52.2835   37.1672 a3         1 CLA     -0.053300
     44 C4A        78.1353   59.5602   38.1856 ac         1 CLA      0.001800
     45 C4B        76.5417   61.1599   42.0042 cn         1 CLA     -0.020900
     46 C4C        72.7065   59.0730   41.3584 cr         1 CLA     -0.044400
     47 C4D        74.4459   57.3938   37.8456 c6         1 CLA     -0.046000
     48 C5         82.2417   54.6998   38.0707 a2         1 CLA     -0.070400
     49 C6         83.2667   55.7638   37.7036 a2         1 CLA      0.043900
     50 C7         83.5075   56.6341   38.9035 a2         1 CLA     -0.150000
     51 C8         84.1927   58.0466   38.5613 a1         1 CLA      0.064200
     52 C9         85.4024   57.8849   37.6105 a3         1 CLA     -0.259300
     53 C10        84.5814   58.7037   39.9052 a2         1 CLA     -0.071900
     54 C11        83.3405   59.1612   40.7159 a2         1 CLA      0.014500
     55 C12        83.5301   60.1794   41.9035 a2         1 CLA     -0.112100
     56 C13        84.1772   59.5857   43.1376 a1         1 CLA      0.089200
     57 C14        83.4360   58.4250   43.8285 a3         1 CLA     -0.239100
     58 C15        84.2611   60.6917   44.1636 a2         1 CLA     -0.102200
     59 C16        83.0533   61.2803   44.8992 a2         1 CLA      0.023900
     60 C17        83.3797   62.2803   46.0292 a2         1 CLA     -0.105700
     61 C18        82.2428   63.0793   46.7142 a1         1 CLA      0.206800
     62 C19        82.5217   64.5612   47.1697 a3         1 CLA     -0.280100
     63 C20        80.9099   63.1441   45.8770 a3         1 CLA     -0.280100
     64 NC         73.8963   59.7156   41.2714 nx         1 CLA     -0.309200
     65 MG         75.3776   59.4709   39.7024 mg         1 CLA      0.895000
     66 HMD3       70.6223   55.8367   39.4093 dc         1 CLA      0.064300
     67 HMD2       70.2893   56.2494   37.7355 dc         1 CLA      0.064300
     68 HMD1       71.2328   54.8174   38.1524 dc         1 CLA      0.064300
     69 HMC3       73.9265   61.0003   45.2287 dc         1 CLA      0.052100
     70 HMC2       72.2383   60.9035   45.1242 dc         1 CLA      0.052100
     71 HMC1       73.1011   59.5045   45.6181 dc         1 CLA      0.052100
     72 HMB3       80.8493   61.7513   41.5150 dc         1 CLA      0.063600
     73 HMB2       80.1465   62.7562   40.1379 dc         1 CLA      0.063600
     74 HMB1       79.9567   63.3017   41.7959 dc         1 CLA      0.063600
     75 HMA3       80.0300   57.3573   38.4318 dc         1 CLA      0.058300
     76 HMA2       80.7650   57.4979   36.8171 dc         1 CLA      0.058300
     77 HMA1       80.9829   58.7049   38.1007 dc         1 CLA      0.058300
     78 HED3       76.9799   52.4749   37.4290 dc         1 CLA      0.079300
     79 HED2       77.9977   53.7262   38.1643 dc         1 CLA      0.079300
     80 HED1       76.8126   52.9802   39.1285 dc         1 CLA      0.079300
     81 HBC3       71.9430   56.7878   44.1541 dc         1 CLA      0.016300
     82 HBC2       70.1797   56.6838   43.8292 dc         1 CLA      0.016300
     83 HBC1       71.2140   56.4635   42.4782 dc         1 CLA      0.016300
     84 HBB2       77.0841   63.5909   45.3216 da         1 CLA      0.183000
     85 HBB1       76.0051   63.2100   43.8377 da         1 CLA      0.183000
     86 HBA2       79.3261   57.6658   33.1134 dc         1 CLA      0.029400
     87 HBA1       80.2994   57.8360   34.4924 dc         1 CLA      0.029400
     88 HAC2       70.8332   58.6752   44.3094 dc         1 CLA      0.029300
     89 HAC1       70.0386   58.7563   42.6649 dc         1 CLA      0.029300
     90 HAA2       77.2145   57.5333   34.4317 dc         1 CLA      0.028700
     91 HAA1       77.9427   59.0863   34.8116 dc         1 CLA      0.028700
     92 H203       81.1570   63.6471   44.9205 dc         1 CLA      0.065600
     93 H202       80.4683   62.1718   45.6825 dc         1 CLA      0.065600
     94 H201       80.1654   63.6988   46.4195 dc         1 CLA      0.065600
     95 H193       82.1689   64.7698   48.1912 dc         1 CLA      0.065600
     96 H192       83.5471   64.7641   47.1231 dc         1 CLA      0.065600
     97 H191       82.1335   65.3281   46.5313 dc         1 CLA      0.065600
     98 H172       83.9851   61.7174   46.6781 dc         1 CLA      0.027600
     99 H171       84.0685   62.9776   45.5267 dc         1 CLA      0.027600
    100 H162       82.4035   61.7346   44.1281 dc         1 CLA      0.002900
    101 H161       82.5216   60.4824   45.3648 dc         1 CLA      0.002900
    102 H152       84.9615   60.3350   44.9199 dc         1 CLA      0.029100
    103 H151       84.8872   61.4619   43.7167 dc         1 CLA      0.029100
    104 H143       84.1230   58.1670   44.6413 dc         1 CLA      0.063600
    105 H142       82.4067   58.6360   44.0782 dc         1 CLA      0.063600
    106 H141       83.5355   57.5316   43.1751 dc         1 CLA      0.063600
    107 H122       84.1884   60.9651   41.5242 dc         1 CLA      0.032500
    108 H121       82.5021   60.4822   42.1135 dc         1 CLA      0.032500
    109 H112       82.5236   59.4782   40.1047 dc         1 CLA      0.006600
    110 H111       82.9503   58.2442   41.2134 dc         1 CLA      0.006600
    111 H102       85.1616   58.0746   40.5803 dc         1 CLA      0.024100
    112 H101       85.1539   59.6072   39.6286 dc         1 CLA      0.024100
    113 HHD        71.1958   57.7848   40.5133 da         1 CLA      0.174300
    114 HHC        75.4197   61.2244   43.8812 da         1 CLA      0.136800
    115 HHB        79.6588   60.7679   38.9568 da         1 CLA      0.138300
    116 HBD        75.5281   56.2643   35.0973 dc         1 CLA      0.107700
    117 HAB        79.0227   62.6172   43.9881 da         1 CLA      0.155200
    118 H93        86.2413   57.3908   38.1332 dc         1 CLA      0.069500
    119 H92        85.2472   57.2442   36.7434 dc         1 CLA      0.069500
    120 H91        85.6577   58.9492   37.4246 dc         1 CLA      0.069500
    121 H8         83.3817   58.6717   38.0559 dc         1 CLA      0.029300
    122 H72        82.5600   56.9199   39.4096 dc         1 CLA      0.044400
    123 H71        84.1056   56.2309   39.6544 dc         1 CLA      0.044400
    124 H62        84.1877   55.2703   37.3833 dc         1 CLA      0.015600
    125 H61        82.8090   56.3410   36.8953 dc         1 CLA      0.015600
    126 H52        81.2225   55.1692   38.2241 dc         1 CLA      0.033200
    127 H51        82.6217   54.1526   38.9706 dc         1 CLA      0.033200
    128 H43        83.9253   52.5487   36.6350 dc         1 CLA      0.037000
    129 H42        83.2687   52.0684   38.1681 dc         1 CLA      0.037000
    130 H41        82.4405   51.4894   36.6507 dc         1 CLA      0.037000
    131 H3A        79.2047   59.6040   36.3827 dc         1 CLA      0.041100
    132 H2A        78.4623   56.8243   36.7242 dc         1 CLA      0.083100
    133 H2         80.0701   52.9799   36.8909 da         1 CLA      0.180900
    134 H18        81.9054   62.5798   47.6298 dc         1 CLA     -0.003900
    135 H13        85.1868   59.2373   42.9222 dc         1 CLA      0.019700
    136 H12        79.8711   53.3388   34.7003 dc         1 CLA      0.120400
    137 H11        81.5766   53.8684   34.3838 dc         1 CLA      0.120400
    138 C1         67.0563   62.7027   50.5236 Z1         2 LUT      0.509236
    139 C2         66.9812   63.9938   51.5001 Z2         2 LUT     -0.434695
    140 C3         65.6616   64.7554   51.4783 Z3         2 LUT      0.437453
    141 O3         65.9760   66.0473   51.9653 S1         2 LUT     -0.547129
    142 C4         64.9898   64.6321   50.1243 Z4         2 LUT     -0.468603
    143 C5         65.8196   64.1150   48.9386 Z5         2 LUT      0.279246
    144 C6         66.7169   63.0825   49.0705 Z6         2 LUT     -0.305473
    145 C7         67.5646   62.4569   48.0262 Z7         2 LUT      0.069402
    146 C8         68.1000   63.0297   46.9214 Z8         2 LUT     -0.191631
    147 C9         68.8879   62.3684   45.7498 Z9         2 LUT      0.196698
    148 C10        69.7329   63.2122   45.1034 Y1         2 LUT     -0.208611
    149 C11        70.4433   63.0943   43.8647 Y2         2 LUT      0.030784
    150 C12        71.3281   64.0467   43.3967 Y3         2 LUT     -0.220316
    151 C13        72.1597   63.9115   42.2144 Y4         2 LUT      0.215937
    152 C14        73.2683   64.6986   42.1600 Y5         2 LUT     -0.185793
    153 C15        74.4383   64.5915   41.3603 Y6         2 LUT     -0.057835
    154 C16        66.1903   61.6232   51.0419 Y7         2 LUT     -0.405615
    155 C17        68.5200   62.1505   50.6933 Y7         2 LUT     -0.405615
    156 C18        65.4041   64.7250   47.5529 Y9         2 LUT     -0.369639
    157 C19        68.5302   60.9425   45.3090 W1         2 LUT     -0.333362
    158 C20        71.7820   62.9323   41.1142 W2         2 LUT     -0.323439
    159 C21        86.4024   65.8509   35.6866 Z1         2 LUT      0.406104
    160 C22        87.0683   65.1366   34.5169 Z2         2 LUT     -0.404965
    161 C23        87.0191   65.7564   33.1534 Z3         2 LUT      0.391255
    162 O23        87.2509   64.7565   32.1672 S1         2 LUT     -0.528210
    163 C24        85.7585   66.5342   33.0140 W6         2 LUT     -0.258361
    164 C25        84.7765   66.7184   33.9170 Z5         2 LUT      0.133546
    165 C26        84.8323   66.1384   35.3298 W8         2 LUT     -0.147008
    166 C27        84.0030   66.7424   36.4351 Z7         2 LUT      0.023843
    167 C28        82.8281   66.2796   37.0189 Z8         2 LUT     -0.216987
    168 C29        82.1345   66.6931   38.2981 Z9         2 LUT      0.206524
    169 C30        80.9782   66.1016   38.7547 Y1         2 LUT     -0.215556
    170 C31        80.1404   66.3897   39.8665 Y2         2 LUT      0.025142
    171 C32        78.9608   65.7075   40.0659 Y3         2 LUT     -0.212209
    172 C33        77.9658   65.8983   41.0992 Y4         2 LUT      0.240937
    173 C34        76.8966   65.0474   40.9024 Y5         2 LUT     -0.218862
    174 C35        75.6875   65.1152   41.7374 Y6         2 LUT     -0.023547
    175 C36        87.2839   67.0981   36.0356 Y7         2 LUT     -0.393485
    176 C37        86.6485   64.7438   36.7747 Y7         2 LUT     -0.393485
    177 C38        83.5032   67.4854   33.4589 Y9         2 LUT     -0.387526
    178 C39        82.6548   67.9390   38.9402 W1         2 LUT     -0.322618
    179 C40        78.4391   66.5205   42.3312 W2         2 LUT     -0.358472
    180 H403       77.7576   66.5106   43.1787 R7         2 LUT      0.097720
    181 H402       79.3450   66.0740   42.7166 R7         2 LUT      0.097720
    182 H401       78.6334   67.4995   42.1059 R7         2 LUT      0.097720
    183 H393       83.7569   67.9231   38.9933 R4         2 LUT      0.082505
    184 H392       82.4310   68.9100   38.4347 R4         2 LUT      0.082505
    185 H391       82.3010   68.0956   39.9493 R4         2 LUT      0.082505
    186 H383       83.2198   68.3282   34.1840 R1         2 LUT      0.104030
    187 H382       83.7419   67.8967   32.4427 R1         2 LUT      0.104030
    188 H381       82.6410   66.7793   33.3038 R1         2 LUT      0.104030
    189 H373       86.0721   64.9720   37.6990 T4         2 LUT      0.089537
    190 H372       86.4774   63.7350   36.4780 T4         2 LUT      0.089537
    191 H371       87.7161   64.7859   37.0613 T4         2 LUT      0.089537
    192 H363       87.6195   67.6166   35.1346 T4         2 LUT      0.089537
    193 H362       86.7366   67.7144   36.7902 T4         2 LUT      0.089537
    194 H361       88.3226   66.7887   36.4665 T4         2 LUT      0.089537
    195 H222       88.1091   65.0134   34.7855 U2         2 LUT      0.127376
    196 H221       86.6395   64.1384   34.4275 U2         2 LUT      0.127376
    197 H203       71.9336   63.1276   40.0992 R7         2 LUT      0.087068
    198 H202       72.1727   61.9842   41.3769 R7         2 LUT      0.087068
    199 H201       70.6880   62.8356   41.0691 R7         2 LUT      0.087068
    200 H193       69.0606   60.4524   44.4645 R4         2 LUT      0.089716
    201 H192       68.5322   60.3668   46.2017 R4         2 LUT      0.089716
    202 H191       67.4133   60.8427   45.1152 R4         2 LUT      0.089716
    203 H183       64.4220   65.2175   47.4869 R1         2 LUT      0.094572
    204 H182       66.1003   65.4733   47.2494 R1         2 LUT      0.094572
    205 H181       65.3648   63.9585   46.8226 R1         2 LUT      0.094572
    206 H173       68.6171   61.1012   50.3313 T4         2 LUT      0.093752
    207 H172       69.1589   62.8567   50.2175 T4         2 LUT      0.093752
    208 H171       68.7726   62.2177   51.7925 T4         2 LUT      0.093752
    209 H163       66.4383   60.6740   50.5202 T4         2 LUT      0.093752
    210 H162       66.3363   61.5513   52.1268 T4         2 LUT      0.093752
    211 H161       65.0657   61.8767   50.9887 T4         2 LUT      0.093752
    212 HO3        65.2239   66.3349   52.5314 Q1         2 LUT      0.300121
    213 H8         68.0255   64.0538   46.6889 U7         2 LUT      0.080784
    214 H7         68.0316   61.4350   48.1834 U6         2 LUT      0.042190
    215 H42        64.2215   63.8167   50.1989 U5         2 LUT      0.145166
    216 H41        64.4833   65.5785   49.9050 U5         2 LUT      0.145166
    217 H35        75.6943   65.7098   42.6656 T3         2 LUT      0.077919
    218 H34        76.7679   64.3264   40.0657 T2         2 LUT      0.073626
    219 H32        78.7495   65.0030   39.2680 T1         2 LUT      0.092510
    220 H31        80.3750   67.0098   40.7038 U9         2 LUT      0.070048
    221 H30        80.5748   65.3492   38.0232 U8         2 LUT      0.085442
    222 H3         65.0712   64.1391   52.1401 U3         2 LUT     -0.031596
    223 H28        82.3128   65.5144   36.4070 U7         2 LUT      0.084728
    224 H27        84.5656   67.5394   36.9879 U6         2 LUT      0.087291
    225 H26        84.2694   65.1690   35.2769 Q6         2 LUT      0.075325
    226 H24        85.6588   66.8991   31.9696 Q5         2 LUT      0.094482
    227 H23        87.8094   66.4914   33.0488 U3         2 LUT     -0.024869
    228 H22        67.1701   63.7221   52.4987 U2         2 LUT      0.127376
    229 H21        67.7444   64.6972   51.1491 U2         2 LUT      0.127376
    230 H15        74.2974   63.8959   40.5480 T3         2 LUT      0.093200
    231 H14        73.5288   65.2947   43.0115 T2         2 LUT      0.068865
    232 H12        71.5984   64.8760   44.0851 T1         2 LUT      0.095507
    233 H11        70.2324   62.2565   43.2313 U9         2 LUT      0.068930
    234 H10        69.7850   64.2004   45.4625 U8         2 LUT      0.083911
    235 H1         87.2619   65.0995   31.3034 Q1         2 LUT      0.297311
@<TRIPOS>BOND
    1     6     1 1
    2     7     2 1
    3     8     3 1
    4     9     4 1
    5    11     4 1
    6    12     6 1
    7    13     9 1
    8    16     9 1
    9    25     5 1
   10    25    16 1
   11    26    10 1
   12    26    17 1
   13    27    18 1
   14    28    14 1
   15    28    19 1
   16    29    12 1
   17    30    13 1
   18    31    24 1
   19    32     1 1
   20    32    25 1
   21    33    21 1
   22    33    26 1
   23    34    22 1
   24    34    27 1
   25    35    23 1
   26    35    28 1
   27    36    12 1
   28    36    24 1
   29    37    13 1
   30    37    15 1
   31    38    31 1
   32    39    20 1
   33    39    32 1
   34    40     2 1
   35    40    33 1
   36    41     3 1
   37    41    34 1
   38    42     4 1
   39    42    35 1
   40    43    38 1
   41    44     5 1
   42    44    17 1
   43    44    39 1
   44    45    10 1
   45    45    18 1
   46    45    40 1
   47    46    19 1
   48    46    41 1
   49    47    14 1
   50    47    16 1
   51    47    42 1
   52    48    38 1
   53    49    48 1
   54    50    49 1
   55    51    50 1
   56    52    51 1
   57    53    51 1
   58    54    53 1
   59    55    54 1
   60    56    55 1
   61    57    56 1
   62    58    56 1
   63    59    58 1
   64    60    59 1
   65    61    60 1
   66    62    61 1
   67    63    61 1
   68    64    27 1
   69    64    46 1
   70    65     5 1
   71    65    10 1
   72    65    64 1
   73    65    14 1
   74    66    23 1
   75    67    23 1
   76    68    23 1
   77    69    22 1
   78    70    22 1
   79    71    22 1
   80    72    21 1
   81    73    21 1
   82    74    21 1
   83    75    20 1
   84    76    20 1
   85    77    20 1
   86    78    15 1
   87    79    15 1
   88    80    15 1
   89    81     8 1
   90    82     8 1
   91    83     8 1
   92    84     7 1
   93    85     7 1
   94    86     6 1
   95    87     6 1
   96    88     3 1
   97    89     3 1
   98    90     1 1
   99    91     1 1
  100    92    63 1
  101    93    63 1
  102    94    63 1
  103    95    62 1
  104    96    62 1
  105    97    62 1
  106    98    60 1
  107    99    60 1
  108   100    59 1
  109   101    59 1
  110   102    58 1
  111   103    58 1
  112   104    57 1
  113   105    57 1
  114   106    57 1
  115   107    55 1
  116   108    55 1
  117   109    54 1
  118   110    54 1
  119   111    53 1
  120   112    53 1
  121   113    19 1
  122   114    18 1
  123   115    17 1
  124   116     9 1
  125   117     2 1
  126   118    52 1
  127   119    52 1
  128   120    52 1
  129   121    51 1
  130   122    50 1
  131   123    50 1
  132   124    49 1
  133   125    49 1
  134   126    48 1
  135   127    48 1
  136   128    43 1
  137   129    43 1
  138   130    43 1
  139   131    39 1
  140   132    32 1
  141   133    31 1
  142   134    61 1
  143   135    56 1
  144   136    24 1
  145   137    24 1
  146   139   138 1
  147   140   139 1
  148   141   140 1
  149   142   140 1
  150   143   142 1
  151   144   138 1
  152   144   143 1
  153   145   144 1
  154   146   145 1
  155   147   146 1
  156   148   147 1
  157   149   148 1
  158   150   149 1
  159   151   150 1
  160   152   151 1
  161   153   152 1
  162   154   138 1
  163   155   138 1
  164   156   143 1
  165   157   147 1
  166   158   151 1
  167   160   159 1
  168   161   160 1
  169   162   161 1
  170   163   161 1
  171   164   163 1
  172   165   159 1
  173   165   164 1
  174   166   165 1
  175   167   166 1
  176   168   167 1
  177   169   168 1
  178   170   169 1
  179   171   170 1
  180   172   171 1
  181   173   172 1
  182   174   153 1
  183   174   173 1
  184   175   159 1
  185   176   159 1
  186   177   164 1
  187   178   168 1
  188   179   172 1
  189   180   179 1
  190   181   179 1
  191   182   179 1
  192   183   178 1
  193   184   178 1
  194   185   178 1
  195   186   177 1
  196   187   177 1
  197   188   177 1
  198   189   176 1
  199   190   176 1
  200   191   176 1
  201   192   175 1
  202   193   175 1
  203   194   175 1
  204   195   160 1
  205   196   160 1
  206   197   158 1
  207   198   158 1
  208   199   158 1
  209   200   157 1
  210   201   157 1
  211   202   157 1
  212   203   156 1
  213   204   156 1
  214   205   156 1
  215   206   155 1
  216   207   155 1
  217   208   155 1
  218   209   154 1
  219   210   154 1
  220   211   154 1
  221   212   141 1
  222   213   146 1
  223   214   145 1
  224   215   142 1
  225   216   142 1
  226   217   174 1
  227   218   173 1
  228   219   171 1
  229   220   170 1
  230   221   169 1
  231   222   140 1
  232   223   167 1
  233   224   166 1
  234   225   165 1
  235   226   163 1
  236   227   161 1
  237   228   139 1
  238   229   139 1
  239   230   153 1
  240   231   152 1
  241   232   150 1
  242   233   149 1
  243   234   148 1
  244   235   162 1
  245   65    153 1
  246   65    174 1
@<TRIPOS>SUBSTRUCTURE
      1 CLA               1 ****               0 ****  **** 
      2 LUT             138 ****               0 ****  **** 
