@<TRIPOS>MOLECULE
Cpptraj generated mol2 file.
  235   246     2     0     0
SMALL
USER_CHARGES


@<TRIPOS>ATOM
      1 CAA        76.9237   57.8888   34.6434 a2         1 CLA     -0.055900
      2 CAB        77.2556   61.8454   43.5263 c8         1 CLA     -0.148500
      3 CAC        70.0538   58.4125   43.2957 a2         1 CLA     -0.012600
      4 CAD        72.7091   55.3574   36.1940 ck         1 CLA      0.398800
      5 NA         75.9778   58.3693   38.0866 ns         1 CLA     -0.225500
      6 CBA        78.2225   57.6633   33.8689 a2         1 CLA     -0.135000
      7 CBB        78.4506   61.7554   44.2042 c0         1 CLA     -0.395200
      8 CBC        69.7748   56.9028   43.5056 a3         1 CLA     -0.037700
      9 CBD        74.1958   55.6754   35.9686 a1         1 CLA     -0.053900
     10 NB         75.9844   59.9111   40.6601 nm         1 CLA     -0.295700
     11 OBD        72.0543   54.6134   35.4658 o2         1 CLA     -0.494600
     12 CGA        78.6919   56.2209   33.5582 c4         1 CLA      0.827000
     13 CGD        75.1092   54.5351   36.1985 c4         1 CLA      0.655300
     14 ND         73.1758   57.5375   38.8698 nm         1 CLA     -0.291600
     15 CED        75.9240   52.8565   37.7514 a3         1 CLA      0.005400
     16 CHA        74.5651   56.7797   36.9451 cs         1 CLA     -0.123800
     17 CHB        77.8082   59.6478   39.0034 aa         1 CLA     -0.291900
     18 CHC        74.7941   60.2321   42.7908 aa         1 CLA     -0.090400
     19 CHD        71.3744   57.6217   40.4639 aa         1 CLA     -0.052000
     20 CMA        79.2846   57.3343   37.3733 a3         1 CLA     -0.230700
     21 CMB        79.4073   61.5459   40.8087 a3         1 CLA     -0.180800
     22 CMC        72.4347   60.0792   44.7996 a3         1 CLA     -0.134000
     23 CMD        69.9756   55.6985   38.3519 a3         1 CLA     -0.141100
     24 C1         79.4457   54.2114   34.7243 a2         1 CLA      0.023000
     25 C1A        75.8233   57.4799   37.0814 ac         1 CLA     -0.015100
     26 C1B        77.2665   60.1691   40.1935 cr         1 CLA      0.054700
     27 C1C        73.5753   59.5852   42.5433 cn         1 CLA     -0.005600
     28 C1D        71.9200   57.2782   39.2404 ap         1 CLA     -0.047300
     29 O1A        78.8465   55.7637   32.4470 o2         1 CLA     -0.610800
     30 O1D        75.8920   54.1812   35.3542 o2         1 CLA     -0.558200
     31 C2         80.1357   53.9442   36.0421 c8         1 CLA     -0.325100
     32 C2A        77.0445   57.3618   36.1319 a1         1 CLA      0.098600
     33 C2B        77.9900   61.0373   41.0993 cb         1 CLA      0.088500
     34 C2C        72.4688   59.5117   43.4170 cb         1 CLA      0.053700
     35 C2D        71.3381   56.3313   38.3088 cb         1 CLA      0.058900
     36 O2A        79.0112   55.5791   34.7763 o1         1 CLA     -0.437200
     37 O2D        75.0266   54.0035   37.4804 o1         1 CLA     -0.357600
     38 C3         81.2029   53.2301   36.1137 c5         1 CLA      0.031200
     39 C3A        78.0921   58.2107   36.9499 a1         1 CLA      0.166800
     40 C3B        77.1078   61.1524   42.2418 cb         1 CLA      0.035000
     41 C3C        71.4475   58.6972   42.7859 cb         1 CLA     -0.089900
     42 C3D        72.3654   56.0804   37.4360 cb         1 CLA     -0.035900
     43 C4         81.2511   51.7184   36.3005 a3         1 CLA     -0.053300
     44 C4A        77.2549   58.7716   38.1109 ac         1 CLA      0.001800
     45 C4B        75.9317   60.3818   41.9507 cn         1 CLA     -0.020900
     46 C4C        72.0095   58.3803   41.5100 cr         1 CLA     -0.044400
     47 C4D        73.4658   56.8939   37.7772 c6         1 CLA     -0.046000
     48 C5         82.5414   53.7972   35.9438 a2         1 CLA     -0.070400
     49 C6         82.8792   55.3254   36.3066 a2         1 CLA      0.043900
     50 C7         83.0184   55.5997   37.7192 a2         1 CLA     -0.150000
     51 C8         83.3561   57.0168   38.1686 a1         1 CLA      0.064200
     52 C9         84.5986   57.7225   37.5949 a3         1 CLA     -0.259300
     53 C10        83.5800   57.1647   39.6809 a2         1 CLA     -0.071900
     54 C11        82.4384   56.7756   40.6814 a2         1 CLA      0.014500
     55 C12        82.5703   57.1931   42.1075 a2         1 CLA     -0.112100
     56 C13        83.6903   56.5695   42.9811 a1         1 CLA      0.089200
     57 C14        83.3320   55.0866   43.4425 a3         1 CLA     -0.239100
     58 C15        84.1079   57.5257   44.2449 a2         1 CLA     -0.102200
     59 C16        83.0301   58.3201   45.0735 a2         1 CLA      0.023900
     60 C17        83.7832   59.1630   46.1558 a2         1 CLA     -0.105700
     61 C18        82.8489   59.8963   47.1464 a1         1 CLA      0.206800
     62 C19        83.7074   60.8047   48.0756 a3         1 CLA     -0.280100
     63 C20        81.7470   60.7887   46.4855 a3         1 CLA     -0.280100
     64 NC         73.2701   58.9174   41.3514 nx         1 CLA     -0.309200
     65 MG         74.5225   58.7226   39.6574 mg         1 CLA      0.895000
     66 HMD3       69.5134   55.6543   39.2972 dc         1 CLA      0.064300
     67 HMD2       69.4715   56.4667   37.7440 dc         1 CLA      0.064300
     68 HMD1       70.1267   54.7082   37.8257 dc         1 CLA      0.064300
     69 HMC3       71.4128   60.0680   45.2480 dc         1 CLA      0.052100
     70 HMC2       73.0648   59.4345   45.4009 dc         1 CLA      0.052100
     71 HMC1       72.8023   61.1466   44.7685 dc         1 CLA      0.052100
     72 HMB3       80.0969   60.7084   40.6417 dc         1 CLA      0.063600
     73 HMB2       79.4325   62.1527   39.9137 dc         1 CLA      0.063600
     74 HMB1       79.7185   62.1830   41.6300 dc         1 CLA      0.063600
     75 HMA3       80.0254   57.2519   36.5593 dc         1 CLA      0.058300
     76 HMA2       79.8359   57.8894   38.1637 dc         1 CLA      0.058300
     77 HMA1       78.9261   56.4081   37.8148 dc         1 CLA      0.058300
     78 HED3       75.6178   51.9649   37.2236 dc         1 CLA      0.079300
     79 HED2       76.9301   53.1138   37.4293 dc         1 CLA      0.079300
     80 HED1       75.9013   52.7288   38.8021 dc         1 CLA      0.079300
     81 HBC3       68.8807   56.8372   44.1687 dc         1 CLA      0.016300
     82 HBC2       69.5842   56.4097   42.5956 dc         1 CLA      0.016300
     83 HBC1       70.5612   56.2947   43.9544 dc         1 CLA      0.016300
     84 HBB2       78.5315   62.1946   45.2171 da         1 CLA      0.183000
     85 HBB1       79.3418   61.3395   43.7982 da         1 CLA      0.183000
     86 HBA2       77.9683   58.1693   32.9388 dc         1 CLA      0.029400
     87 HBA1       79.0844   58.1123   34.3142 dc         1 CLA      0.029400
     88 HAC2       70.0986   58.8231   44.2715 dc         1 CLA      0.029300
     89 HAC1       69.2478   58.8698   42.6969 dc         1 CLA      0.029300
     90 HAA2       76.1492   57.3633   34.1748 dc         1 CLA      0.028700
     91 HAA1       76.7368   58.9949   34.8141 dc         1 CLA      0.028700
     92 H203       81.1720   60.2502   45.7286 dc         1 CLA      0.065600
     93 H202       81.1161   61.0848   47.3351 dc         1 CLA      0.065600
     94 H201       82.0416   61.6921   45.8982 dc         1 CLA      0.065600
     95 H193       83.0365   61.1663   48.8373 dc         1 CLA      0.065600
     96 H192       84.3734   60.1508   48.7009 dc         1 CLA      0.065600
     97 H191       84.1746   61.6597   47.5891 dc         1 CLA      0.065600
     98 H172       84.4193   58.4881   46.7142 dc         1 CLA      0.027600
     99 H171       84.4819   59.8352   45.6342 dc         1 CLA      0.027600
    100 H162       82.5189   59.0576   44.4965 dc         1 CLA      0.002900
    101 H161       82.3511   57.6317   45.5542 dc         1 CLA      0.002900
    102 H152       84.9176   57.1062   44.8373 dc         1 CLA      0.029100
    103 H151       84.4489   58.2895   43.5862 dc         1 CLA      0.029100
    104 H143       82.7739   55.1586   44.3852 dc         1 CLA      0.063600
    105 H142       82.7308   54.5757   42.6403 dc         1 CLA      0.063600
    106 H141       84.1536   54.3740   43.5238 dc         1 CLA      0.063600
    107 H122       82.8012   58.2282   42.0714 dc         1 CLA      0.032500
    108 H121       81.6594   57.0379   42.7179 dc         1 CLA      0.032500
    109 H112       81.6471   57.3962   40.3041 dc         1 CLA      0.006600
    110 H111       82.2715   55.6876   40.5406 dc         1 CLA      0.006600
    111 H102       84.4629   56.6759   39.9747 dc         1 CLA      0.024100
    112 H101       83.7027   58.1969   39.9070 dc         1 CLA      0.024100
    113 HHD        70.4405   57.2375   40.8254 da         1 CLA      0.174300
    114 HHC        74.8955   60.6878   43.7477 da         1 CLA      0.136800
    115 HHB        78.7947   59.9755   38.6954 da         1 CLA      0.138300
    116 HBD        74.2756   56.0428   34.9214 dc         1 CLA      0.107700
    117 HAB        76.3292   62.2767   43.9812 da         1 CLA      0.155200
    118 H93        85.4673   57.1706   37.9811 dc         1 CLA      0.069500
    119 H92        84.5688   57.7397   36.5061 dc         1 CLA      0.069500
    120 H91        84.6860   58.7244   37.9529 dc         1 CLA      0.069500
    121 H8         82.5224   57.6889   37.9217 dc         1 CLA      0.029300
    122 H72        82.0845   55.2470   38.2091 dc         1 CLA      0.044400
    123 H71        83.7803   55.0386   38.1959 dc         1 CLA      0.044400
    124 H62        83.7480   55.5875   35.6733 dc         1 CLA      0.015600
    125 H61        82.0215   55.9181   35.9351 dc         1 CLA      0.015600
    126 H52        83.2095   53.1628   36.5717 dc         1 CLA      0.033200
    127 H51        82.7913   53.7793   34.8841 dc         1 CLA      0.033200
    128 H43        81.7399   51.4774   37.3154 dc         1 CLA      0.037000
    129 H42        80.2590   51.2777   36.2542 dc         1 CLA      0.037000
    130 H41        81.8939   51.2910   35.5345 dc         1 CLA      0.037000
    131 H3A        78.4437   59.0678   36.5172 dc         1 CLA      0.041100
    132 H2A        77.2887   56.3001   36.1560 dc         1 CLA      0.083100
    133 H2         79.9751   54.5835   36.9178 da         1 CLA      0.180900
    134 H18        82.3469   59.1330   47.6552 dc         1 CLA     -0.003900
    135 H13        84.5158   56.6190   42.2973 dc         1 CLA      0.019700
    136 H12        78.6147   53.4874   34.5189 dc         1 CLA      0.120400
    137 H11        80.2707   54.2827   34.0311 dc         1 CLA      0.120400
    138 C1         67.2901   61.5828   50.6762 Z1         2 LUT      0.509236
    139 C2         65.8404   61.1722   50.9789 Z2         2 LUT     -0.434695
    140 C3         64.9646   62.3655   51.4019 Z3         2 LUT      0.437453
    141 O3         65.0484   62.5847   52.7660 S1         2 LUT     -0.547129
    142 C4         65.3915   63.7250   50.8092 Z4         2 LUT     -0.468603
    143 C5         66.1944   63.6084   49.5509 Z5         2 LUT      0.279246
    144 C6         67.1094   62.6164   49.4877 Z6         2 LUT     -0.305473
    145 C7         67.5145   62.0038   48.2131 Z7         2 LUT      0.069402
    146 C8         68.5034   62.3753   47.3332 Z8         2 LUT     -0.191631
    147 C9         68.7764   61.8025   45.9933 Z9         2 LUT      0.196698
    148 C10        69.8088   62.4440   45.2945 Y1         2 LUT     -0.208611
    149 C11        70.2081   62.4361   43.9621 Y2         2 LUT      0.030784
    150 C12        71.2600   63.1962   43.6297 Y3         2 LUT     -0.220316
    151 C13        72.0691   63.0702   42.3732 Y4         2 LUT      0.215937
    152 C14        73.2555   63.7349   42.3818 Y5         2 LUT     -0.185793
    153 C15        74.4377   63.7928   41.4987 Y6         2 LUT     -0.057835
    154 C16        68.0591   60.3221   50.3467 Y7         2 LUT     -0.405615
    155 C17        68.0590   62.2867   51.8853 Y7         2 LUT     -0.405615
    156 C18        65.5059   64.3148   48.4231 Y9         2 LUT     -0.369639
    157 C19        67.9016   60.7459   45.4836 W1         2 LUT     -0.333362
    158 C20        71.6705   62.1072   41.3114 W2         2 LUT     -0.323439
    159 C21        86.1402   65.2115   35.4871 Z1         2 LUT      0.406104
    160 C22        86.7008   64.5709   34.1757 Z2         2 LUT     -0.404965
    161 C23        86.6067   65.3710   32.9287 Z3         2 LUT      0.391255
    162 O23        87.1203   64.6415   31.8390 S1         2 LUT     -0.528210
    163 C24        85.1853   65.9314   32.8190 W6         2 LUT     -0.258361
    164 C25        84.2492   65.9715   33.7461 Z5         2 LUT      0.133546
    165 C26        84.5513   65.3891   35.1791 W8         2 LUT     -0.147008
    166 C27        83.8124   66.0915   36.3104 Z7         2 LUT      0.023843
    167 C28        82.7251   65.5553   36.8480 Z8         2 LUT     -0.216987
    168 C29        82.0079   66.1617   37.9837 Z9         2 LUT      0.206524
    169 C30        80.8598   65.5291   38.3944 Y1         2 LUT     -0.215556
    170 C31        80.0432   65.7356   39.5448 Y2         2 LUT      0.025142
    171 C32        78.7990   65.1498   39.6485 Y3         2 LUT     -0.212209
    172 C33        77.8957   65.2042   40.8130 Y4         2 LUT      0.240937
    173 C34        76.7445   64.4508   40.7711 Y5         2 LUT     -0.218862
    174 C35        75.6497   64.4341   41.6590 Y6         2 LUT     -0.023547
    175 C36        86.9500   66.4366   36.0327 Y7         2 LUT     -0.393485
    176 C37        86.2839   64.1706   36.5502 Y7         2 LUT     -0.393485
    177 C38        82.8129   66.4197   33.4005 Y9         2 LUT     -0.387526
    178 C39        82.5126   67.2937   38.7332 W1         2 LUT     -0.322618
    179 C40        78.5145   65.7938   42.0612 W2         2 LUT     -0.358472
    180 H403       79.2200   65.1062   42.5448 R7         2 LUT      0.097720
    181 H402       79.0175   66.7315   41.9199 R7         2 LUT      0.097720
    182 H401       77.8864   65.9366   42.8316 R7         2 LUT      0.097720
    183 H393       83.1814   67.0106   39.5376 R4         2 LUT      0.082505
    184 H392       83.0797   67.9785   38.1265 R4         2 LUT      0.082505
    185 H391       81.7426   67.8704   39.2331 R4         2 LUT      0.082505
    186 H383       82.0360   65.9249   34.0252 R1         2 LUT      0.104030
    187 H382       82.7632   67.5036   33.6813 R1         2 LUT      0.104030
    188 H381       82.5275   66.2327   32.3760 R1         2 LUT      0.104030
    189 H373       85.8823   64.4714   37.5369 T4         2 LUT      0.089537
    190 H372       85.7297   63.2727   36.2392 T4         2 LUT      0.089537
    191 H371       87.3103   63.9651   36.7315 T4         2 LUT      0.089537
    192 H363       87.0967   67.2631   35.3204 T4         2 LUT      0.089537
    193 H362       86.5120   66.8436   36.8957 T4         2 LUT      0.089537
    194 H361       87.9791   66.0856   36.2917 T4         2 LUT      0.089537
    195 H222       87.7478   64.2382   34.2176 U2         2 LUT      0.127376
    196 H221       86.2347   63.6421   33.9259 U2         2 LUT      0.127376
    197 H203       71.3107   61.1964   41.7423 R7         2 LUT      0.087068
    198 H202       70.8631   62.5641   40.6904 R7         2 LUT      0.087068
    199 H201       72.5183   61.9353   40.6057 R7         2 LUT      0.087068
    200 H193       66.8221   60.8889   45.5754 R4         2 LUT      0.089716
    201 H192       68.1306   60.6802   44.4091 R4         2 LUT      0.089716
    202 H191       68.1468   59.8207   45.9164 R4         2 LUT      0.089716
    203 H183       65.5603   65.3201   48.5611 R1         2 LUT      0.094572
    204 H182       65.8380   64.0450   47.3843 R1         2 LUT      0.094572
    205 H181       64.4489   64.1263   48.4080 R1         2 LUT      0.094572
    206 H173       68.0979   61.5718   52.6749 T4         2 LUT      0.093752
    207 H172       69.1102   62.6307   51.6004 T4         2 LUT      0.093752
    208 H171       67.6018   63.1676   52.3421 T4         2 LUT      0.093752
    209 H163       68.2356   59.5775   51.1213 T4         2 LUT      0.093752
    210 H162       67.5275   59.7593   49.5817 T4         2 LUT      0.093752
    211 H161       69.1705   60.4818   50.0955 T4         2 LUT      0.093752
    212 HO3        64.1705   62.4433   53.2132 Q1         2 LUT      0.300121
    213 H8         69.1033   63.2211   47.7700 U7         2 LUT      0.080784
    214 H7         66.8543   61.1818   47.9161 U6         2 LUT      0.042190
    215 H42        64.4683   64.2859   50.6240 U5         2 LUT      0.145166
    216 H41        66.0277   64.3438   51.4294 U5         2 LUT      0.145166
    217 H35        75.6255   65.1683   42.4643 T3         2 LUT      0.077919
    218 H34        76.5962   63.8315   39.8875 T2         2 LUT      0.073626
    219 H32        78.4557   64.5231   38.8390 T1         2 LUT      0.092510
    220 H31        80.3830   66.4143   40.3073 U9         2 LUT      0.070048
    221 H30        80.6249   64.6829   37.7387 U8         2 LUT      0.085442
    222 H3         63.9648   62.1506   50.9970 U3         2 LUT     -0.031596
    223 H28        82.2977   64.7066   36.4193 U7         2 LUT      0.084728
    224 H27        84.2462   67.0178   36.5345 U6         2 LUT      0.087291
    225 H26        84.0649   64.4398   35.0069 Q6         2 LUT      0.075325
    226 H24        84.8170   66.2773   31.8375 Q5         2 LUT      0.094482
    227 H23        87.3296   66.2076   33.1396 U3         2 LUT     -0.024869
    228 H22        65.3312   60.8469   50.0207 U2         2 LUT      0.127376
    229 H21        65.8651   60.3701   51.7076 U2         2 LUT      0.127376
    230 H15        74.6098   63.2218   40.6123 T3         2 LUT      0.093200
    231 H14        73.6572   64.1357   43.3849 T2         2 LUT      0.068865
    232 H12        71.6601   63.8485   44.4135 T1         2 LUT      0.095507
    233 H11        69.6287   61.8029   43.3044 U9         2 LUT      0.068930
    234 H10        70.3273   63.2036   45.9072 U8         2 LUT      0.083911
    235 H1         86.7362   64.8129   30.9345 Q1         2 LUT      0.297311
@<TRIPOS>BOND
    1     6     1 1
    2     7     2 1
    3     8     3 1
    4     9     4 1
    5    11     4 1
    6    12     6 1
    7    13     9 1
    8    16     9 1
    9    25     5 1
   10    25    16 1
   11    26    10 1
   12    26    17 1
   13    27    18 1
   14    28    14 1
   15    28    19 1
   16    29    12 1
   17    30    13 1
   18    31    24 1
   19    32     1 1
   20    32    25 1
   21    33    21 1
   22    33    26 1
   23    34    22 1
   24    34    27 1
   25    35    23 1
   26    35    28 1
   27    36    12 1
   28    36    24 1
   29    37    13 1
   30    37    15 1
   31    38    31 1
   32    39    20 1
   33    39    32 1
   34    40     2 1
   35    40    33 1
   36    41     3 1
   37    41    34 1
   38    42     4 1
   39    42    35 1
   40    43    38 1
   41    44     5 1
   42    44    17 1
   43    44    39 1
   44    45    10 1
   45    45    18 1
   46    45    40 1
   47    46    19 1
   48    46    41 1
   49    47    14 1
   50    47    16 1
   51    47    42 1
   52    48    38 1
   53    49    48 1
   54    50    49 1
   55    51    50 1
   56    52    51 1
   57    53    51 1
   58    54    53 1
   59    55    54 1
   60    56    55 1
   61    57    56 1
   62    58    56 1
   63    59    58 1
   64    60    59 1
   65    61    60 1
   66    62    61 1
   67    63    61 1
   68    64    27 1
   69    64    46 1
   70    65     5 1
   71    65    10 1
   72    65    64 1
   73    65    14 1
   74    66    23 1
   75    67    23 1
   76    68    23 1
   77    69    22 1
   78    70    22 1
   79    71    22 1
   80    72    21 1
   81    73    21 1
   82    74    21 1
   83    75    20 1
   84    76    20 1
   85    77    20 1
   86    78    15 1
   87    79    15 1
   88    80    15 1
   89    81     8 1
   90    82     8 1
   91    83     8 1
   92    84     7 1
   93    85     7 1
   94    86     6 1
   95    87     6 1
   96    88     3 1
   97    89     3 1
   98    90     1 1
   99    91     1 1
  100    92    63 1
  101    93    63 1
  102    94    63 1
  103    95    62 1
  104    96    62 1
  105    97    62 1
  106    98    60 1
  107    99    60 1
  108   100    59 1
  109   101    59 1
  110   102    58 1
  111   103    58 1
  112   104    57 1
  113   105    57 1
  114   106    57 1
  115   107    55 1
  116   108    55 1
  117   109    54 1
  118   110    54 1
  119   111    53 1
  120   112    53 1
  121   113    19 1
  122   114    18 1
  123   115    17 1
  124   116     9 1
  125   117     2 1
  126   118    52 1
  127   119    52 1
  128   120    52 1
  129   121    51 1
  130   122    50 1
  131   123    50 1
  132   124    49 1
  133   125    49 1
  134   126    48 1
  135   127    48 1
  136   128    43 1
  137   129    43 1
  138   130    43 1
  139   131    39 1
  140   132    32 1
  141   133    31 1
  142   134    61 1
  143   135    56 1
  144   136    24 1
  145   137    24 1
  146   139   138 1
  147   140   139 1
  148   141   140 1
  149   142   140 1
  150   143   142 1
  151   144   138 1
  152   144   143 1
  153   145   144 1
  154   146   145 1
  155   147   146 1
  156   148   147 1
  157   149   148 1
  158   150   149 1
  159   151   150 1
  160   152   151 1
  161   153   152 1
  162   154   138 1
  163   155   138 1
  164   156   143 1
  165   157   147 1
  166   158   151 1
  167   160   159 1
  168   161   160 1
  169   162   161 1
  170   163   161 1
  171   164   163 1
  172   165   159 1
  173   165   164 1
  174   166   165 1
  175   167   166 1
  176   168   167 1
  177   169   168 1
  178   170   169 1
  179   171   170 1
  180   172   171 1
  181   173   172 1
  182   174   153 1
  183   174   173 1
  184   175   159 1
  185   176   159 1
  186   177   164 1
  187   178   168 1
  188   179   172 1
  189   180   179 1
  190   181   179 1
  191   182   179 1
  192   183   178 1
  193   184   178 1
  194   185   178 1
  195   186   177 1
  196   187   177 1
  197   188   177 1
  198   189   176 1
  199   190   176 1
  200   191   176 1
  201   192   175 1
  202   193   175 1
  203   194   175 1
  204   195   160 1
  205   196   160 1
  206   197   158 1
  207   198   158 1
  208   199   158 1
  209   200   157 1
  210   201   157 1
  211   202   157 1
  212   203   156 1
  213   204   156 1
  214   205   156 1
  215   206   155 1
  216   207   155 1
  217   208   155 1
  218   209   154 1
  219   210   154 1
  220   211   154 1
  221   212   141 1
  222   213   146 1
  223   214   145 1
  224   215   142 1
  225   216   142 1
  226   217   174 1
  227   218   173 1
  228   219   171 1
  229   220   170 1
  230   221   169 1
  231   222   140 1
  232   223   167 1
  233   224   166 1
  234   225   165 1
  235   226   163 1
  236   227   161 1
  237   228   139 1
  238   229   139 1
  239   230   153 1
  240   231   152 1
  241   232   150 1
  242   233   149 1
  243   234   148 1
  244   235   162 1
  245   65    153 1
  246   65    174 1
@<TRIPOS>SUBSTRUCTURE
      1 CLA               1 ****               0 ****  **** 
      2 LUT             138 ****               0 ****  **** 
