@<TRIPOS>MOLECULE
Cpptraj generated mol2 file.
  235   246     2     0     0
SMALL
USER_CHARGES


@<TRIPOS>ATOM
      1 CAA        77.3601   57.9941   34.4390 a2         1 CLA     -0.055900
      2 CAB        77.4576   62.4662   42.9532 c8         1 CLA     -0.148500
      3 CAC        70.7460   57.5508   43.1022 a2         1 CLA     -0.012600
      4 CAD        73.3367   55.0407   35.8719 ck         1 CLA      0.398800
      5 NA         76.4198   58.2914   37.8391 ns         1 CLA     -0.225500
      6 CBA        78.6311   57.7393   33.5957 a2         1 CLA     -0.135000
      7 CBB        76.4526   63.0769   43.5876 c0         1 CLA     -0.395200
      8 CBC        70.7856   56.0652   43.0874 a3         1 CLA     -0.037700
      9 CBD        74.7276   55.6988   35.4124 a1         1 CLA     -0.053900
     10 NB         76.2983   60.1265   40.3008 nm         1 CLA     -0.295700
     11 OBD        72.8197   54.1590   35.2432 o2         1 CLA     -0.494600
     12 CGA        79.0287   56.2399   33.3709 c4         1 CLA      0.827000
     13 CGD        75.8514   54.7009   35.2375 c4         1 CLA      0.655300
     14 ND         73.6430   57.3019   38.4674 nm         1 CLA     -0.291600
     15 CED        77.1283   53.3118   36.7727 a3         1 CLA      0.005400
     16 CHA        75.0254   56.7691   36.4954 cs         1 CLA     -0.123800
     17 CHB        78.2367   59.7096   38.8859 aa         1 CLA     -0.291900
     18 CHC        74.8882   60.4464   42.2950 aa         1 CLA     -0.090400
     19 CHD        71.8823   57.2009   40.1666 aa         1 CLA     -0.052000
     20 CMA        79.8365   57.5343   37.3664 a3         1 CLA     -0.230700
     21 CMB        79.5740   61.7213   40.7854 a3         1 CLA     -0.180800
     22 CMC        72.8173   59.8700   44.4141 a3         1 CLA     -0.134000
     23 CMD        70.7143   54.9056   38.1910 a3         1 CLA     -0.141100
     24 C1         80.0651   54.3148   34.2567 a2         1 CLA      0.023000
     25 C1A        76.2038   57.6052   36.6611 ac         1 CLA     -0.015100
     26 C1B        77.5813   60.2727   39.9959 cr         1 CLA      0.054700
     27 C1C        73.8473   59.5794   42.0397 cn         1 CLA     -0.005600
     28 C1D        72.4503   56.7937   38.9486 ap         1 CLA     -0.047300
     29 O1A        78.6467   55.5603   32.4539 o2         1 CLA     -0.610800
     30 O1D        76.7429   54.7036   34.4449 o2         1 CLA     -0.558200
     31 C2         80.8153   53.9086   35.4942 c8         1 CLA     -0.325100
     32 C2A        77.5826   57.4815   35.9076 a1         1 CLA      0.098600
     33 C2B        78.1585   61.2236   40.8835 cb         1 CLA      0.088500
     34 C2C        72.7326   59.3009   43.0451 cb         1 CLA      0.053700
     35 C2D        71.9375   55.7466   38.0950 cb         1 CLA      0.058900
     36 O2A        79.8719   55.7549   34.4144 o1         1 CLA     -0.437200
     37 O2D        75.8455   53.8975   36.3639 o1         1 CLA     -0.357600
     38 C3         81.7039   52.9457   35.7188 c5         1 CLA      0.031200
     39 C3A        78.6159   58.2426   36.7755 a1         1 CLA      0.166800
     40 C3B        77.1991   61.5622   41.8255 cb         1 CLA      0.035000
     41 C3C        71.9277   58.2912   42.4333 cb         1 CLA     -0.089900
     42 C3D        72.9448   55.7126   37.0928 cb         1 CLA     -0.035900
     43 C4         81.1751   51.5475   36.0238 a3         1 CLA     -0.053300
     44 C4A        77.7186   58.7991   37.8583 ac         1 CLA      0.001800
     45 C4B        76.0423   60.7063   41.4887 cn         1 CLA     -0.020900
     46 C4C        72.4718   58.1039   41.1042 cr         1 CLA     -0.044400
     47 C4D        73.9559   56.6520   37.3633 c6         1 CLA     -0.046000
     48 C5         83.1740   53.0676   35.3743 a2         1 CLA     -0.070400
     49 C6         83.9117   54.4236   35.7033 a2         1 CLA      0.043900
     50 C7         83.8521   54.8078   37.2179 a2         1 CLA     -0.150000
     51 C8         84.6078   56.0774   37.6115 a1         1 CLA      0.064200
     52 C9         86.1392   55.8297   37.5500 a3         1 CLA     -0.259300
     53 C10        84.3100   56.5763   39.0213 a2         1 CLA     -0.071900
     54 C11        82.8861   56.8661   39.3972 a2         1 CLA      0.014500
     55 C12        82.8577   57.7179   40.7317 a2         1 CLA     -0.112100
     56 C13        83.5269   57.2094   42.0487 a1         1 CLA      0.089200
     57 C14        82.6372   56.3236   42.9674 a3         1 CLA     -0.239100
     58 C15        83.8933   58.4731   42.9124 a2         1 CLA     -0.102200
     59 C16        82.7147   59.2913   43.5559 a2         1 CLA      0.023900
     60 C17        83.2367   60.4767   44.4179 a2         1 CLA     -0.105700
     61 C18        82.1238   61.3577   45.0798 a1         1 CLA      0.206800
     62 C19        82.8721   62.4417   45.8188 a3         1 CLA     -0.280100
     63 C20        81.1692   62.0606   44.0203 a3         1 CLA     -0.280100
     64 NC         73.7047   58.7686   40.9396 nx         1 CLA     -0.309200
     65 MG         74.9125   58.8056   39.2993 mg         1 CLA      0.895000
     66 HMD3       70.6544   54.5603   39.2811 dc         1 CLA      0.064300
     67 HMD2       69.7462   55.3987   37.9700 dc         1 CLA      0.064300
     68 HMD1       70.9200   54.1110   37.5252 dc         1 CLA      0.064300
     69 HMC3       73.7828   59.5358   44.7151 dc         1 CLA      0.052100
     70 HMC2       72.6628   60.9582   44.3924 dc         1 CLA      0.052100
     71 HMC1       72.1451   59.3238   45.1041 dc         1 CLA      0.052100
     72 HMB3       79.7457   61.9269   39.7571 dc         1 CLA      0.063600
     73 HMB2       79.6644   62.6312   41.3391 dc         1 CLA      0.063600
     74 HMB1       80.2078   60.9371   41.1919 dc         1 CLA      0.063600
     75 HMA3       79.6977   56.6643   37.9563 dc         1 CLA      0.058300
     76 HMA2       80.4451   57.2354   36.5081 dc         1 CLA      0.058300
     77 HMA1       80.4208   58.2729   37.9184 dc         1 CLA      0.058300
     78 HED3       77.9421   54.0065   36.5267 dc         1 CLA      0.079300
     79 HED2       77.0560   52.9734   37.8072 dc         1 CLA      0.079300
     80 HED1       77.2973   52.4647   36.0999 dc         1 CLA      0.079300
     81 HBC3       69.8940   55.7056   43.5009 dc         1 CLA      0.016300
     82 HBC2       70.9763   55.5773   42.1036 dc         1 CLA      0.016300
     83 HBC1       71.4975   55.6606   43.7783 dc         1 CLA      0.016300
     84 HBB2       76.6800   63.7791   44.3972 da         1 CLA      0.183000
     85 HBB1       75.3912   63.0310   43.4250 da         1 CLA      0.183000
     86 HBA2       78.4027   58.1294   32.6208 dc         1 CLA      0.029400
     87 HBA1       79.5566   58.2248   33.9878 dc         1 CLA      0.029400
     88 HAC2       70.7390   57.7585   44.1307 dc         1 CLA      0.029300
     89 HAC1       69.8640   57.8998   42.7368 dc         1 CLA      0.029300
     90 HAA2       76.4456   57.5911   34.0590 dc         1 CLA      0.028700
     91 HAA1       77.1492   59.0567   34.5359 dc         1 CLA      0.028700
     92 H203       80.6330   61.2745   43.4585 dc         1 CLA      0.065600
     93 H202       80.5694   62.7094   44.5363 dc         1 CLA      0.065600
     94 H201       81.8075   62.7331   43.4466 dc         1 CLA      0.065600
     95 H193       83.4435   63.0931   45.1715 dc         1 CLA      0.065600
     96 H192       82.1480   63.0378   46.3477 dc         1 CLA      0.065600
     97 H191       83.5530   61.9824   46.4935 dc         1 CLA      0.065600
     98 H172       83.9433   60.0399   45.2474 dc         1 CLA      0.027600
     99 H171       83.7485   61.0911   43.6338 dc         1 CLA      0.027600
    100 H162       82.2582   59.7737   42.7762 dc         1 CLA      0.002900
    101 H161       81.8893   58.7712   44.1399 dc         1 CLA      0.002900
    102 H152       84.5038   58.1354   43.7223 dc         1 CLA      0.029100
    103 H151       84.5365   59.1815   42.3744 dc         1 CLA      0.029100
    104 H143       83.2951   55.8592   43.7626 dc         1 CLA      0.063600
    105 H142       81.7797   56.7842   43.4489 dc         1 CLA      0.063600
    106 H141       82.2385   55.5186   42.4087 dc         1 CLA      0.063600
    107 H122       83.3984   58.6600   40.5028 dc         1 CLA      0.032500
    108 H121       81.7763   57.9796   40.9419 dc         1 CLA      0.032500
    109 H112       82.5928   57.4802   38.5772 dc         1 CLA      0.006600
    110 H111       82.1522   56.0205   39.4718 dc         1 CLA      0.006600
    111 H102       84.9105   56.0927   39.7560 dc         1 CLA      0.024100
    112 H101       84.7051   57.6094   38.9727 dc         1 CLA      0.024100
    113 HHD        70.8764   56.8526   40.4819 da         1 CLA      0.174300
    114 HHC        74.9792   60.9907   43.2257 da         1 CLA      0.136800
    115 HHB        79.2208   60.1298   38.6776 da         1 CLA      0.138300
    116 HBD        74.5643   56.2762   34.5310 dc         1 CLA      0.107700
    117 HAB        78.4962   62.4964   43.2736 da         1 CLA      0.155200
    118 H93        86.4535   55.2660   38.4469 dc         1 CLA      0.069500
    119 H92        86.4729   55.3443   36.6179 dc         1 CLA      0.069500
    120 H91        86.6554   56.8147   37.5206 dc         1 CLA      0.069500
    121 H8         84.3617   56.8549   36.8351 dc         1 CLA      0.029300
    122 H72        82.8384   54.9441   37.5405 dc         1 CLA      0.044400
    123 H71        84.2499   54.0774   37.8582 dc         1 CLA      0.044400
    124 H62        84.9464   54.2175   35.4181 dc         1 CLA      0.015600
    125 H61        83.4498   55.2122   35.1306 dc         1 CLA      0.015600
    126 H52        83.6543   52.2136   35.8420 dc         1 CLA      0.033200
    127 H51        83.3665   52.9579   34.3119 dc         1 CLA      0.033200
    128 H43        80.0935   51.5806   36.1700 dc         1 CLA      0.037000
    129 H42        81.3397   50.9175   35.1019 dc         1 CLA      0.037000
    130 H41        81.5590   51.2016   37.0015 dc         1 CLA      0.037000
    131 H3A        78.9314   59.1227   36.2930 dc         1 CLA      0.041100
    132 H2A        77.8223   56.4544   36.0156 dc         1 CLA      0.083100
    133 H2         80.5497   54.4790   36.3146 da         1 CLA      0.180900
    134 H18        81.6239   60.7236   45.8604 dc         1 CLA     -0.003900
    135 H13        84.4363   56.6186   41.8579 dc         1 CLA      0.019700
    136 H12        79.0929   53.8170   34.3444 dc         1 CLA      0.120400
    137 H11        80.5997   53.9671   33.2922 dc         1 CLA      0.120400
    138 C1         67.9673   61.3087   50.4435 Z1         2 LUT      0.509236
    139 C2         66.6858   61.0457   51.2992 Z2         2 LUT     -0.434695
    140 C3         65.8695   62.2778   51.6545 Z3         2 LUT      0.437453
    141 O3         66.3259   62.9447   52.8252 S1         2 LUT     -0.547129
    142 C4         65.8238   63.2221   50.4528 Z4         2 LUT     -0.468603
    143 C5         66.6718   62.9875   49.1997 Z5         2 LUT      0.279246
    144 C6         67.6776   62.0958   49.1662 Z6         2 LUT     -0.305473
    145 C7         68.1226   61.4919   47.8567 Z7         2 LUT      0.069402
    146 C8         68.6866   62.0905   46.7770 Z8         2 LUT     -0.191631
    147 C9         69.0865   61.5273   45.5084 Z9         2 LUT      0.196698
    148 C10        69.6950   62.3491   44.5587 Y1         2 LUT     -0.208611
    149 C11        70.2947   62.0667   43.3177 Y2         2 LUT      0.030784
    150 C12        71.3267   62.7676   42.8164 Y3         2 LUT     -0.220316
    151 C13        72.1774   62.6737   41.6807 Y4         2 LUT      0.215937
    152 C14        73.3390   63.4322   41.7566 Y5         2 LUT     -0.185793
    153 C15        74.4834   63.5020   40.8260 Y6         2 LUT     -0.057835
    154 C16        68.7748   59.9526   50.2408 Y7         2 LUT     -0.405615
    155 C17        68.8781   62.1520   51.3804 Y7         2 LUT     -0.405615
    156 C18        65.9683   63.6933   48.0571 Y9         2 LUT     -0.369639
    157 C19        68.8938   60.0915   45.1525 W1         2 LUT     -0.333362
    158 C20        71.8208   61.7647   40.5445 W2         2 LUT     -0.323439
    159 C21        86.0956   64.9839   35.3702 Z1         2 LUT      0.406104
    160 C22        86.8709   64.4542   34.1039 Z2         2 LUT     -0.404965
    161 C23        86.9546   65.4587   32.9297 Z3         2 LUT      0.391255
    162 O23        87.6190   64.8745   31.7637 S1         2 LUT     -0.528210
    163 C24        85.6593   66.0928   32.7419 W6         2 LUT     -0.258361
    164 C25        84.6379   66.1948   33.5738 Z5         2 LUT      0.133546
    165 C26        84.6366   65.3853   34.9000 W8         2 LUT     -0.147008
    166 C27        83.8186   66.1693   35.7619 Z7         2 LUT      0.023843
    167 C28        82.6829   65.8105   36.3409 Z8         2 LUT     -0.216987
    168 C29        81.9788   66.3582   37.5162 Z9         2 LUT      0.206524
    169 C30        80.8210   65.6775   37.7837 Y1         2 LUT     -0.215556
    170 C31        79.9027   65.8677   38.8699 Y2         2 LUT      0.025142
    171 C32        78.7469   65.1797   38.9478 Y3         2 LUT     -0.212209
    172 C33        77.7515   65.1620   40.0551 Y4         2 LUT      0.240937
    173 C34        76.6153   64.3905   39.9608 Y5         2 LUT     -0.218862
    174 C35        75.5852   64.3053   40.9183 Y6         2 LUT     -0.023547
    175 C36        86.9724   66.0825   36.0375 Y7         2 LUT     -0.393485
    176 C37        86.1232   63.8238   36.3931 Y7         2 LUT     -0.393485
    177 C38        83.3333   66.8487   33.1482 Y9         2 LUT     -0.387526
    178 C39        82.5630   67.4901   38.3033 W1         2 LUT     -0.322618
    179 C40        78.0555   65.8495   41.3573 W2         2 LUT     -0.358472
    180 H403       78.9731   65.4754   41.8191 R7         2 LUT      0.097720
    181 H402       78.2809   66.9202   41.2021 R7         2 LUT      0.097720
    182 H401       77.3161   65.8611   42.1992 R7         2 LUT      0.097720
    183 H393       82.8992   68.3039   37.6871 R4         2 LUT      0.082505
    184 H392       81.9946   67.8515   39.1752 R4         2 LUT      0.082505
    185 H391       83.5011   67.1327   38.7432 R4         2 LUT      0.082505
    186 H383       82.4280   66.2987   33.3449 R1         2 LUT      0.104030
    187 H382       83.2223   67.7498   33.7593 R1         2 LUT      0.104030
    188 H381       83.2809   67.1935   32.1414 R1         2 LUT      0.104030
    189 H373       87.0234   63.3944   36.5454 T4         2 LUT      0.089537
    190 H372       85.6119   64.1534   37.3106 T4         2 LUT      0.089537
    191 H371       85.5148   63.0578   35.9375 T4         2 LUT      0.089537
    192 H363       88.0002   65.7317   36.1012 T4         2 LUT      0.089537
    193 H362       87.1287   66.8598   35.3689 T4         2 LUT      0.089537
    194 H361       86.5265   66.3707   37.0665 T4         2 LUT      0.089537
    195 H222       87.8056   64.0508   34.4585 U2         2 LUT      0.127376
    196 H221       86.3104   63.6147   33.8268 U2         2 LUT      0.127376
    197 H203       71.5335   60.7992   40.9717 R7         2 LUT      0.087068
    198 H202       71.1331   62.1379   39.8508 R7         2 LUT      0.087068
    199 H201       72.6485   61.4663   39.8614 R7         2 LUT      0.087068
    200 H193       69.5766   59.3872   45.7755 R4         2 LUT      0.089716
    201 H192       67.8397   59.7378   45.2217 R4         2 LUT      0.089716
    202 H191       69.1521   59.9468   44.1445 R4         2 LUT      0.089716
    203 H183       65.8861   62.9802   47.2594 R1         2 LUT      0.094572
    204 H182       64.9433   64.0823   48.2901 R1         2 LUT      0.094572
    205 H181       66.5293   64.6030   47.7010 R1         2 LUT      0.094572
    206 H173       68.4125   63.1131   51.6636 T4         2 LUT      0.093752
    207 H172       69.0458   61.6956   52.3434 T4         2 LUT      0.093752
    208 H171       69.7831   62.5051   50.9035 T4         2 LUT      0.093752
    209 H163       68.6897   59.4576   51.1248 T4         2 LUT      0.093752
    210 H162       68.4165   59.2281   49.4533 T4         2 LUT      0.093752
    211 H161       69.8119   60.1536   50.0309 T4         2 LUT      0.093752
    212 HO3        66.2910   62.4724   53.6541 Q1         2 LUT      0.300121
    213 H8         68.7083   63.1850   46.7969 U7         2 LUT      0.080784
    214 H7         68.1361   60.3938   47.7546 U6         2 LUT      0.042190
    215 H42        64.8137   63.2727   50.1033 U5         2 LUT      0.145166
    216 H41        65.9665   64.2233   50.8087 U5         2 LUT      0.145166
    217 H35        75.6236   64.9606   41.8240 T3         2 LUT      0.077919
    218 H34        76.4856   63.8412   39.0376 T2         2 LUT      0.073626
    219 H32        78.4946   64.5230   38.0852 T1         2 LUT      0.092510
    220 H31        80.1655   66.5389   39.6957 U9         2 LUT      0.070048
    221 H30        80.5027   64.9540   37.0855 U8         2 LUT      0.085442
    222 H3         64.8562   62.0973   51.8990 U3         2 LUT     -0.031596
    223 H28        82.3251   64.8554   35.9853 U7         2 LUT      0.084728
    224 H27        84.1508   67.1785   36.0502 U6         2 LUT      0.087291
    225 H26        83.9174   64.5327   34.6977 Q6         2 LUT      0.075325
    226 H24        85.4390   66.6364   31.7865 Q5         2 LUT      0.094482
    227 H23        87.7707   66.0736   33.3203 U3         2 LUT     -0.024869
    228 H22        65.9531   60.4871   50.6581 U2         2 LUT      0.127376
    229 H21        66.8769   60.4461   52.1951 U2         2 LUT      0.127376
    230 H15        74.5041   62.8740   39.9478 T3         2 LUT      0.093200
    231 H14        73.3936   64.1169   42.6197 T2         2 LUT      0.068865
    232 H12        71.6303   63.6428   43.3658 T1         2 LUT      0.095507
    233 H11        69.9345   61.2552   42.7282 U9         2 LUT      0.068930
    234 H10        69.8572   63.3965   44.8310 U8         2 LUT      0.083911
    235 H1         87.0307   64.3146   31.2488 Q1         2 LUT      0.297311
@<TRIPOS>BOND
    1     6     1 1
    2     7     2 1
    3     8     3 1
    4     9     4 1
    5    11     4 1
    6    12     6 1
    7    13     9 1
    8    16     9 1
    9    25     5 1
   10    25    16 1
   11    26    10 1
   12    26    17 1
   13    27    18 1
   14    28    14 1
   15    28    19 1
   16    29    12 1
   17    30    13 1
   18    31    24 1
   19    32     1 1
   20    32    25 1
   21    33    21 1
   22    33    26 1
   23    34    22 1
   24    34    27 1
   25    35    23 1
   26    35    28 1
   27    36    12 1
   28    36    24 1
   29    37    13 1
   30    37    15 1
   31    38    31 1
   32    39    20 1
   33    39    32 1
   34    40     2 1
   35    40    33 1
   36    41     3 1
   37    41    34 1
   38    42     4 1
   39    42    35 1
   40    43    38 1
   41    44     5 1
   42    44    17 1
   43    44    39 1
   44    45    10 1
   45    45    18 1
   46    45    40 1
   47    46    19 1
   48    46    41 1
   49    47    14 1
   50    47    16 1
   51    47    42 1
   52    48    38 1
   53    49    48 1
   54    50    49 1
   55    51    50 1
   56    52    51 1
   57    53    51 1
   58    54    53 1
   59    55    54 1
   60    56    55 1
   61    57    56 1
   62    58    56 1
   63    59    58 1
   64    60    59 1
   65    61    60 1
   66    62    61 1
   67    63    61 1
   68    64    27 1
   69    64    46 1
   70    65     5 1
   71    65    10 1
   72    65    64 1
   73    65    14 1
   74    66    23 1
   75    67    23 1
   76    68    23 1
   77    69    22 1
   78    70    22 1
   79    71    22 1
   80    72    21 1
   81    73    21 1
   82    74    21 1
   83    75    20 1
   84    76    20 1
   85    77    20 1
   86    78    15 1
   87    79    15 1
   88    80    15 1
   89    81     8 1
   90    82     8 1
   91    83     8 1
   92    84     7 1
   93    85     7 1
   94    86     6 1
   95    87     6 1
   96    88     3 1
   97    89     3 1
   98    90     1 1
   99    91     1 1
  100    92    63 1
  101    93    63 1
  102    94    63 1
  103    95    62 1
  104    96    62 1
  105    97    62 1
  106    98    60 1
  107    99    60 1
  108   100    59 1
  109   101    59 1
  110   102    58 1
  111   103    58 1
  112   104    57 1
  113   105    57 1
  114   106    57 1
  115   107    55 1
  116   108    55 1
  117   109    54 1
  118   110    54 1
  119   111    53 1
  120   112    53 1
  121   113    19 1
  122   114    18 1
  123   115    17 1
  124   116     9 1
  125   117     2 1
  126   118    52 1
  127   119    52 1
  128   120    52 1
  129   121    51 1
  130   122    50 1
  131   123    50 1
  132   124    49 1
  133   125    49 1
  134   126    48 1
  135   127    48 1
  136   128    43 1
  137   129    43 1
  138   130    43 1
  139   131    39 1
  140   132    32 1
  141   133    31 1
  142   134    61 1
  143   135    56 1
  144   136    24 1
  145   137    24 1
  146   139   138 1
  147   140   139 1
  148   141   140 1
  149   142   140 1
  150   143   142 1
  151   144   138 1
  152   144   143 1
  153   145   144 1
  154   146   145 1
  155   147   146 1
  156   148   147 1
  157   149   148 1
  158   150   149 1
  159   151   150 1
  160   152   151 1
  161   153   152 1
  162   154   138 1
  163   155   138 1
  164   156   143 1
  165   157   147 1
  166   158   151 1
  167   160   159 1
  168   161   160 1
  169   162   161 1
  170   163   161 1
  171   164   163 1
  172   165   159 1
  173   165   164 1
  174   166   165 1
  175   167   166 1
  176   168   167 1
  177   169   168 1
  178   170   169 1
  179   171   170 1
  180   172   171 1
  181   173   172 1
  182   174   153 1
  183   174   173 1
  184   175   159 1
  185   176   159 1
  186   177   164 1
  187   178   168 1
  188   179   172 1
  189   180   179 1
  190   181   179 1
  191   182   179 1
  192   183   178 1
  193   184   178 1
  194   185   178 1
  195   186   177 1
  196   187   177 1
  197   188   177 1
  198   189   176 1
  199   190   176 1
  200   191   176 1
  201   192   175 1
  202   193   175 1
  203   194   175 1
  204   195   160 1
  205   196   160 1
  206   197   158 1
  207   198   158 1
  208   199   158 1
  209   200   157 1
  210   201   157 1
  211   202   157 1
  212   203   156 1
  213   204   156 1
  214   205   156 1
  215   206   155 1
  216   207   155 1
  217   208   155 1
  218   209   154 1
  219   210   154 1
  220   211   154 1
  221   212   141 1
  222   213   146 1
  223   214   145 1
  224   215   142 1
  225   216   142 1
  226   217   174 1
  227   218   173 1
  228   219   171 1
  229   220   170 1
  230   221   169 1
  231   222   140 1
  232   223   167 1
  233   224   166 1
  234   225   165 1
  235   226   163 1
  236   227   161 1
  237   228   139 1
  238   229   139 1
  239   230   153 1
  240   231   152 1
  241   232   150 1
  242   233   149 1
  243   234   148 1
  244   235   162 1
  245   65    153 1
  246   65    174 1
@<TRIPOS>SUBSTRUCTURE
      1 CLA               1 ****               0 ****  **** 
      2 LUT             138 ****               0 ****  **** 
