@<TRIPOS>MOLECULE
Cpptraj generated mol2 file.
  235   246     2     0     0
SMALL
USER_CHARGES


@<TRIPOS>ATOM
      1 CAA        77.3918   58.3739   33.8818 a2         1 CLA     -0.055900
      2 CAB        77.9996   62.2603   42.7092 c8         1 CLA     -0.148500
      3 CAC        71.3257   57.5629   42.9846 a2         1 CLA     -0.012600
      4 CAD        73.4606   55.7025   35.1703 ck         1 CLA      0.398800
      5 NA         76.7118   58.6207   37.2891 ns         1 CLA     -0.225500
      6 CBA        78.5466   58.2935   32.8583 a2         1 CLA     -0.135000
      7 CBB        79.1543   62.2228   43.4118 c0         1 CLA     -0.395200
      8 CBC        71.0762   56.0372   42.7635 a3         1 CLA     -0.037700
      9 CBD        74.8428   56.1627   34.7640 a1         1 CLA     -0.053900
     10 NB         76.8044   59.9715   39.9141 nm         1 CLA     -0.295700
     11 OBD        72.6463   55.1842   34.4118 o2         1 CLA     -0.494600
     12 CGA        79.0497   56.9828   32.4451 c4         1 CLA      0.827000
     13 CGD        75.7817   55.0241   34.4812 c4         1 CLA      0.655300
     14 ND         73.9835   57.6224   38.1033 nm         1 CLA     -0.291600
     15 CED        76.6569   52.8514   35.3045 a3         1 CLA      0.005400
     16 CHA        75.2695   57.0997   35.9618 cs         1 CLA     -0.123800
     17 CHB        78.5955   59.7533   38.2629 aa         1 CLA     -0.291900
     18 CHC        75.5942   60.2550   42.0429 aa         1 CLA     -0.090400
     19 CHD        72.2088   57.4787   39.8001 aa         1 CLA     -0.052000
     20 CMA        80.1449   58.1372   36.1066 a3         1 CLA     -0.230700
     21 CMB        80.1086   61.7224   40.2212 a3         1 CLA     -0.180800
     22 CMC        73.6306   59.4669   44.3833 a3         1 CLA     -0.134000
     23 CMD        70.6788   55.8832   37.5150 a3         1 CLA     -0.141100
     24 C1         79.8871   54.9506   33.2926 a2         1 CLA      0.023000
     25 C1A        76.4377   57.9213   36.1578 ac         1 CLA     -0.015100
     26 C1B        78.0550   60.2829   39.4608 cr         1 CLA      0.054700
     27 C1C        74.4631   59.4290   41.9022 cn         1 CLA     -0.005600
     28 C1D        72.7089   57.2332   38.4721 ap         1 CLA     -0.047300
     29 O1A        78.8249   56.3997   31.3813 o2         1 CLA     -0.610800
     30 O1D        76.4608   54.9105   33.4619 o2         1 CLA     -0.558200
     31 C2         80.6686   54.4971   34.5146 c8         1 CLA     -0.325100
     32 C2A        77.7181   57.9144   35.2481 a1         1 CLA      0.098600
     33 C2B        78.6943   61.1874   40.3473 cb         1 CLA      0.088500
     34 C2C        73.5623   58.9610   42.9305 cb         1 CLA      0.053700
     35 C2D        72.0882   56.4796   37.3936 cb         1 CLA      0.058900
     36 O2A        79.6907   56.3683   33.5063 o1         1 CLA     -0.437200
     37 O2D        75.7956   54.0533   35.4280 o1         1 CLA     -0.357600
     38 C3         81.3299   53.2884   34.5468 c5         1 CLA      0.031200
     39 C3A        78.7547   58.8359   35.9192 a1         1 CLA      0.166800
     40 C3B        77.8406   61.3620   41.4727 cb         1 CLA      0.035000
     41 C3C        72.5450   58.1497   42.2760 cb         1 CLA     -0.089900
     42 C3D        73.1354   56.3787   36.4545 cb         1 CLA     -0.035900
     43 C4         80.7065   51.9786   35.0483 a3         1 CLA     -0.053300
     44 C4A        77.9830   59.0497   37.2462 ac         1 CLA      0.001800
     45 C4B        76.6904   60.5463   41.1794 cn         1 CLA     -0.020900
     46 C4C        72.8698   58.1340   40.8549 cr         1 CLA     -0.044400
     47 C4D        74.2581   57.1038   36.9067 c6         1 CLA     -0.046000
     48 C5         82.7533   53.1660   33.8903 a2         1 CLA     -0.070400
     49 C6         83.7470   54.1980   34.4613 a2         1 CLA      0.043900
     50 C7         83.7390   54.1100   36.0447 a2         1 CLA     -0.150000
     51 C8         84.5360   55.2491   36.6694 a1         1 CLA      0.064200
     52 C9         86.0351   55.1215   36.3602 a3         1 CLA     -0.259300
     53 C10        84.4669   55.2641   38.2611 a2         1 CLA     -0.071900
     54 C11        83.1057   55.6086   38.9363 a2         1 CLA      0.014500
     55 C12        83.2324   56.4094   40.2488 a2         1 CLA     -0.112100
     56 C13        81.8613   56.6035   41.0405 a1         1 CLA      0.089200
     57 C14        80.8946   57.6150   40.2770 a3         1 CLA     -0.239100
     58 C15        82.0824   57.0090   42.5053 a2         1 CLA     -0.102200
     59 C16        82.6607   58.3512   42.8816 a2         1 CLA      0.023900
     60 C17        82.9392   58.3813   44.3704 a2         1 CLA     -0.105700
     61 C18        83.6940   59.6203   44.9793 a1         1 CLA      0.206800
     62 C19        85.2011   59.6356   44.5317 a3         1 CLA     -0.280100
     63 C20        82.9322   60.9416   44.7325 a3         1 CLA     -0.280100
     64 NC         74.0934   58.8654   40.6907 nx         1 CLA     -0.309200
     65 MG         75.3396   58.9177   38.9643 mg         1 CLA      0.895000
     66 HMD3       70.6359   54.9535   36.9409 dc         1 CLA      0.064300
     67 HMD2       70.4563   55.6537   38.5385 dc         1 CLA      0.064300
     68 HMD1       69.9740   56.7239   37.1705 dc         1 CLA      0.064300
     69 HMC3       73.6310   58.5435   44.9881 dc         1 CLA      0.052100
     70 HMC2       74.5904   59.9985   44.6066 dc         1 CLA      0.052100
     71 HMC1       72.8040   60.0801   44.6735 dc         1 CLA      0.052100
     72 HMB3       80.4483   62.4700   40.9210 dc         1 CLA      0.063600
     73 HMB2       80.7411   60.9137   40.5246 dc         1 CLA      0.063600
     74 HMB1       80.3783   61.8491   39.1773 dc         1 CLA      0.063600
     75 HMA3       80.7310   58.7218   36.8245 dc         1 CLA      0.058300
     76 HMA2       79.9653   57.2402   36.6138 dc         1 CLA      0.058300
     77 HMA1       80.7013   57.9680   35.1893 dc         1 CLA      0.058300
     78 HED3       76.3396   52.4121   34.3851 dc         1 CLA      0.079300
     79 HED2       77.7175   53.0421   35.3130 dc         1 CLA      0.079300
     80 HED1       76.4547   52.1826   36.0919 dc         1 CLA      0.079300
     81 HBC3       70.7169   55.8997   41.7588 dc         1 CLA      0.016300
     82 HBC2       71.9542   55.4131   42.7795 dc         1 CLA      0.016300
     83 HBC1       70.3608   55.7414   43.5529 dc         1 CLA      0.016300
     84 HBB2       79.2770   62.9635   44.2739 da         1 CLA      0.183000
     85 HBB1       79.9652   61.5245   43.1028 da         1 CLA      0.183000
     86 HBA2       78.1422   58.8343   32.0475 dc         1 CLA      0.029400
     87 HBA1       79.4017   58.8863   33.2724 dc         1 CLA      0.029400
     88 HAC2       71.3326   57.6527   44.0314 dc         1 CLA      0.029300
     89 HAC1       70.5275   58.2304   42.7377 dc         1 CLA      0.029300
     90 HAA2       76.6416   57.8176   33.5761 dc         1 CLA      0.028700
     91 HAA1       76.9555   59.3593   33.8747 dc         1 CLA      0.028700
     92 H203       83.6197   61.7941   44.9786 dc         1 CLA      0.065600
     93 H202       82.6847   61.0524   43.6742 dc         1 CLA      0.065600
     94 H201       82.0623   61.0753   45.2509 dc         1 CLA      0.065600
     95 H193       85.7466   60.0964   45.3038 dc         1 CLA      0.065600
     96 H192       85.7091   58.6170   44.5794 dc         1 CLA      0.065600
     97 H191       85.3069   60.0766   43.4899 dc         1 CLA      0.065600
     98 H172       81.9743   58.2323   44.7863 dc         1 CLA      0.027600
     99 H171       83.6034   57.5224   44.6406 dc         1 CLA      0.027600
    100 H162       83.5647   58.5525   42.3602 dc         1 CLA      0.002900
    101 H161       81.9316   59.0552   42.5221 dc         1 CLA      0.002900
    102 H152       81.1310   56.9588   42.9550 dc         1 CLA      0.029100
    103 H151       82.6612   56.2585   43.0311 dc         1 CLA      0.029100
    104 H143       81.3635   58.5825   40.0251 dc         1 CLA      0.063600
    105 H142       80.6071   57.1250   39.3442 dc         1 CLA      0.063600
    106 H141       79.9946   57.8830   40.7699 dc         1 CLA      0.063600
    107 H122       83.9212   55.8477   40.8156 dc         1 CLA      0.032500
    108 H121       83.5202   57.3915   39.9214 dc         1 CLA      0.032500
    109 H112       82.5401   56.1541   38.2539 dc         1 CLA      0.006600
    110 H111       82.5353   54.7115   39.1435 dc         1 CLA      0.006600
    111 H102       84.8515   54.3865   38.6576 dc         1 CLA      0.024100
    112 H101       85.1735   56.0504   38.5305 dc         1 CLA      0.024100
    113 HHD        71.2624   57.0430   40.0517 da         1 CLA      0.174300
    114 HHC        75.7827   60.7726   42.9865 da         1 CLA      0.136800
    115 HHB        79.6335   60.0289   38.0917 da         1 CLA      0.138300
    116 HBD        74.6338   56.6054   33.7573 dc         1 CLA      0.107700
    117 HAB        77.1750   62.8066   42.9264 da         1 CLA      0.155200
    118 H93        86.2831   55.1156   35.3094 dc         1 CLA      0.069500
    119 H92        86.4892   55.9206   36.9239 dc         1 CLA      0.069500
    120 H91        86.3498   54.1932   36.7928 dc         1 CLA      0.069500
    121 H8         84.3191   56.1596   36.2162 dc         1 CLA      0.029300
    122 H72        82.7678   54.2778   36.3944 dc         1 CLA      0.044400
    123 H71        84.1907   53.1094   36.4029 dc         1 CLA      0.044400
    124 H62        84.7218   54.0668   34.0222 dc         1 CLA      0.015600
    125 H61        83.4489   55.2242   34.0766 dc         1 CLA      0.015600
    126 H52        83.1578   52.1621   34.1588 dc         1 CLA      0.033200
    127 H51        82.7280   53.4193   32.8797 dc         1 CLA      0.033200
    128 H43        79.6271   51.9606   34.9529 dc         1 CLA      0.037000
    129 H42        81.0258   51.2195   34.3474 dc         1 CLA      0.037000
    130 H41        81.0133   51.7895   36.0761 dc         1 CLA      0.037000
    131 H3A        78.8156   59.8513   35.5282 dc         1 CLA      0.041100
    132 H2A        78.1852   56.8911   35.2257 dc         1 CLA      0.083100
    133 H2         80.8878   55.1830   35.3723 da         1 CLA      0.180900
    134 H18        83.7320   59.5001   46.0586 dc         1 CLA     -0.003900
    135 H13        81.3227   55.6788   40.9004 dc         1 CLA      0.019700
    136 H12        79.0322   54.3808   33.1484 dc         1 CLA      0.120400
    137 H11        80.4600   54.7006   32.4410 dc         1 CLA      0.120400
    138 C1         67.7232   61.1157   49.8836 Z1         2 LUT      0.509236
    139 C2         67.7836   62.3357   50.7990 Z2         2 LUT     -0.434695
    140 C3         66.5457   63.1777   51.0735 Z3         2 LUT      0.437453
    141 O3         67.0780   64.4867   51.1609 S1         2 LUT     -0.547129
    142 C4         65.6723   63.0856   49.7603 Z4         2 LUT     -0.468603
    143 C5         66.3635   62.7461   48.5130 Z5         2 LUT      0.279246
    144 C6         67.2333   61.6957   48.6010 Z6         2 LUT     -0.305473
    145 C7         68.0063   61.3801   47.3644 Z7         2 LUT      0.069402
    146 C8         68.8136   62.1336   46.5476 Z8         2 LUT     -0.191631
    147 C9         69.1795   61.8107   45.1997 Z9         2 LUT      0.196698
    148 C10        70.1756   62.6414   44.6339 Y1         2 LUT     -0.208611
    149 C11        70.8643   62.3983   43.3759 Y2         2 LUT      0.030784
    150 C12        71.9992   63.0983   43.0200 Y3         2 LUT     -0.220316
    151 C13        72.8650   62.9180   41.8547 Y4         2 LUT      0.215937
    152 C14        74.0228   63.6310   41.8075 Y5         2 LUT     -0.185793
    153 C15        75.1582   63.6634   40.8507 Y6         2 LUT     -0.057835
    154 C16        66.7951   60.0714   50.6039 Y7         2 LUT     -0.405615
    155 C17        69.1917   60.5451   49.9307 Y7         2 LUT     -0.405615
    156 C18        65.8911   63.6617   47.3305 Y9         2 LUT     -0.369639
    157 C19        68.5697   60.5774   44.5480 W1         2 LUT     -0.333362
    158 C20        72.3151   62.1509   40.7331 W2         2 LUT     -0.323439
    159 C21        86.3563   65.3318   34.1485 Z1         2 LUT      0.406104
    160 C22        86.9887   64.8743   32.8178 Z2         2 LUT     -0.404965
    161 C23        86.9887   65.7690   31.6055 Z3         2 LUT      0.391255
    162 O23        87.7067   65.1070   30.4883 S1         2 LUT     -0.528210
    163 C24        85.6122   66.4264   31.5728 W6         2 LUT     -0.258361
    164 C25        84.6930   66.4129   32.5899 Z5         2 LUT      0.133546
    165 C26        84.7996   65.5581   33.8159 W8         2 LUT     -0.147008
    166 C27        83.9750   66.1645   34.9187 Z7         2 LUT      0.023843
    167 C28        83.1068   65.5131   35.6713 Z8         2 LUT     -0.216987
    168 C29        82.5419   66.0477   36.9647 Z9         2 LUT      0.206524
    169 C30        81.3585   65.4220   37.3769 Y1         2 LUT     -0.215556
    170 C31        80.6172   65.6084   38.6066 Y2         2 LUT      0.025142
    171 C32        79.5170   64.8846   38.9713 Y3         2 LUT     -0.212209
    172 C33        78.6163   65.1374   40.1283 Y4         2 LUT      0.240937
    173 C34        77.4092   64.4555   40.1426 Y5         2 LUT     -0.218862
    174 C35        76.2328   64.4527   40.9561 Y6         2 LUT     -0.023547
    175 C36        87.0682   66.5547   34.6476 Y7         2 LUT     -0.393485
    176 C37        86.6044   64.2337   35.1903 Y7         2 LUT     -0.393485
    177 C38        83.2735   67.0391   32.2727 Y9         2 LUT     -0.387526
    178 C39        83.2812   66.9320   37.9508 W1         2 LUT     -0.322618
    179 C40        79.0311   65.9988   41.3561 W2         2 LUT     -0.358472
    180 H403       80.0791   65.8073   41.6458 R7         2 LUT      0.097720
    181 H402       79.1513   67.0589   41.1903 R7         2 LUT      0.097720
    182 H401       78.1955   65.8682   42.0323 R7         2 LUT      0.097720
    183 H393       82.8579   67.8814   38.3556 R4         2 LUT      0.082505
    184 H392       83.4357   66.4558   38.9152 R4         2 LUT      0.082505
    185 H391       84.2566   67.1962   37.5918 R4         2 LUT      0.082505
    186 H383       82.9826   67.6751   33.0998 R1         2 LUT      0.104030
    187 H382       83.3333   67.5234   31.2833 R1         2 LUT      0.104030
    188 H381       82.5495   66.2518   32.1782 R1         2 LUT      0.104030
    189 H373       86.0277   63.3269   34.9936 T4         2 LUT      0.089537
    190 H372       87.7156   63.9299   35.1598 T4         2 LUT      0.089537
    191 H371       86.3550   64.4356   36.2494 T4         2 LUT      0.089537
    192 H363       88.1273   66.4163   34.7792 T4         2 LUT      0.089537
    193 H362       86.8742   67.3673   33.9833 T4         2 LUT      0.089537
    194 H361       86.7139   66.6952   35.6549 T4         2 LUT      0.089537
    195 H222       87.9276   64.3780   32.9936 U2         2 LUT      0.127376
    196 H221       86.4022   63.9610   32.4762 U2         2 LUT      0.127376
    197 H203       72.5577   61.0952   40.7274 R7         2 LUT      0.087068
    198 H202       71.2401   62.1972   40.6673 R7         2 LUT      0.087068
    199 H201       72.6684   62.4741   39.7009 R7         2 LUT      0.087068
    200 H193       68.7271   59.6385   45.0400 R4         2 LUT      0.089716
    201 H192       67.4421   60.7144   44.3267 R4         2 LUT      0.089716
    202 H191       69.0489   60.2968   43.6161 R4         2 LUT      0.089716
    203 H183       64.8260   63.6034   47.2460 R1         2 LUT      0.094572
    204 H182       66.2585   64.6131   47.6210 R1         2 LUT      0.094572
    205 H181       66.4020   63.4523   46.3669 R1         2 LUT      0.094572
    206 H173       69.4554   60.0933   50.8955 T4         2 LUT      0.093752
    207 H172       69.4456   59.7200   49.2754 T4         2 LUT      0.093752
    208 H171       69.9934   61.3124   49.9371 T4         2 LUT      0.093752
    209 H163       65.7460   60.3367   50.6708 T4         2 LUT      0.093752
    210 H162       66.7794   59.1203   50.0791 T4         2 LUT      0.093752
    211 H161       67.1115   59.8457   51.5799 T4         2 LUT      0.093752
    212 HO3        66.4557   65.1215   51.5491 Q1         2 LUT      0.300121
    213 H8         68.7515   63.1970   46.8113 U7         2 LUT      0.080784
    214 H7         67.7337   60.3395   47.0219 U6         2 LUT      0.042190
    215 H42        65.1614   62.1751   49.8758 U5         2 LUT      0.145166
    216 H41        64.8625   63.8071   49.5969 U5         2 LUT      0.145166
    217 H35        76.2793   65.1814   41.8365 T3         2 LUT      0.077919
    218 H34        77.3371   63.9366   39.1697 T2         2 LUT      0.073626
    219 H32        79.1851   64.1957   38.1530 T1         2 LUT      0.092510
    220 H31        80.9621   66.3657   39.2508 U9         2 LUT      0.070048
    221 H30        80.8188   64.7165   36.6645 U8         2 LUT      0.085442
    222 H3         65.9254   62.8350   51.8754 U3         2 LUT     -0.031596
    223 H28        82.8516   64.5512   35.3527 U7         2 LUT      0.084728
    224 H27        84.2398   67.2100   35.2210 U6         2 LUT      0.087291
    225 H26        84.3204   64.5385   33.6300 Q6         2 LUT      0.075325
    226 H24        85.4116   67.0012   30.6640 Q5         2 LUT      0.094482
    227 H23        87.7599   66.5697   31.6876 U3         2 LUT     -0.024869
    228 H22        68.1594   62.1305   51.7479 U2         2 LUT      0.127376
    229 H21        68.6471   62.9375   50.4724 U2         2 LUT      0.127376
    230 H15        75.2074   63.0216   39.9221 T3         2 LUT      0.093200
    231 H14        74.2152   64.2753   42.6686 T2         2 LUT      0.068865
    232 H12        72.3466   63.8111   43.7930 T1         2 LUT      0.095507
    233 H11        70.5794   61.5632   42.7467 U9         2 LUT      0.068930
    234 H10        70.6254   63.4371   45.1907 U8         2 LUT      0.083911
    235 H1         87.1257   64.6570   29.8470 Q1         2 LUT      0.297311
@<TRIPOS>BOND
    1     6     1 1
    2     7     2 1
    3     8     3 1
    4     9     4 1
    5    11     4 1
    6    12     6 1
    7    13     9 1
    8    16     9 1
    9    25     5 1
   10    25    16 1
   11    26    10 1
   12    26    17 1
   13    27    18 1
   14    28    14 1
   15    28    19 1
   16    29    12 1
   17    30    13 1
   18    31    24 1
   19    32     1 1
   20    32    25 1
   21    33    21 1
   22    33    26 1
   23    34    22 1
   24    34    27 1
   25    35    23 1
   26    35    28 1
   27    36    12 1
   28    36    24 1
   29    37    13 1
   30    37    15 1
   31    38    31 1
   32    39    20 1
   33    39    32 1
   34    40     2 1
   35    40    33 1
   36    41     3 1
   37    41    34 1
   38    42     4 1
   39    42    35 1
   40    43    38 1
   41    44     5 1
   42    44    17 1
   43    44    39 1
   44    45    10 1
   45    45    18 1
   46    45    40 1
   47    46    19 1
   48    46    41 1
   49    47    14 1
   50    47    16 1
   51    47    42 1
   52    48    38 1
   53    49    48 1
   54    50    49 1
   55    51    50 1
   56    52    51 1
   57    53    51 1
   58    54    53 1
   59    55    54 1
   60    56    55 1
   61    57    56 1
   62    58    56 1
   63    59    58 1
   64    60    59 1
   65    61    60 1
   66    62    61 1
   67    63    61 1
   68    64    27 1
   69    64    46 1
   70    65     5 1
   71    65    10 1
   72    65    64 1
   73    65    14 1
   74    66    23 1
   75    67    23 1
   76    68    23 1
   77    69    22 1
   78    70    22 1
   79    71    22 1
   80    72    21 1
   81    73    21 1
   82    74    21 1
   83    75    20 1
   84    76    20 1
   85    77    20 1
   86    78    15 1
   87    79    15 1
   88    80    15 1
   89    81     8 1
   90    82     8 1
   91    83     8 1
   92    84     7 1
   93    85     7 1
   94    86     6 1
   95    87     6 1
   96    88     3 1
   97    89     3 1
   98    90     1 1
   99    91     1 1
  100    92    63 1
  101    93    63 1
  102    94    63 1
  103    95    62 1
  104    96    62 1
  105    97    62 1
  106    98    60 1
  107    99    60 1
  108   100    59 1
  109   101    59 1
  110   102    58 1
  111   103    58 1
  112   104    57 1
  113   105    57 1
  114   106    57 1
  115   107    55 1
  116   108    55 1
  117   109    54 1
  118   110    54 1
  119   111    53 1
  120   112    53 1
  121   113    19 1
  122   114    18 1
  123   115    17 1
  124   116     9 1
  125   117     2 1
  126   118    52 1
  127   119    52 1
  128   120    52 1
  129   121    51 1
  130   122    50 1
  131   123    50 1
  132   124    49 1
  133   125    49 1
  134   126    48 1
  135   127    48 1
  136   128    43 1
  137   129    43 1
  138   130    43 1
  139   131    39 1
  140   132    32 1
  141   133    31 1
  142   134    61 1
  143   135    56 1
  144   136    24 1
  145   137    24 1
  146   139   138 1
  147   140   139 1
  148   141   140 1
  149   142   140 1
  150   143   142 1
  151   144   138 1
  152   144   143 1
  153   145   144 1
  154   146   145 1
  155   147   146 1
  156   148   147 1
  157   149   148 1
  158   150   149 1
  159   151   150 1
  160   152   151 1
  161   153   152 1
  162   154   138 1
  163   155   138 1
  164   156   143 1
  165   157   147 1
  166   158   151 1
  167   160   159 1
  168   161   160 1
  169   162   161 1
  170   163   161 1
  171   164   163 1
  172   165   159 1
  173   165   164 1
  174   166   165 1
  175   167   166 1
  176   168   167 1
  177   169   168 1
  178   170   169 1
  179   171   170 1
  180   172   171 1
  181   173   172 1
  182   174   153 1
  183   174   173 1
  184   175   159 1
  185   176   159 1
  186   177   164 1
  187   178   168 1
  188   179   172 1
  189   180   179 1
  190   181   179 1
  191   182   179 1
  192   183   178 1
  193   184   178 1
  194   185   178 1
  195   186   177 1
  196   187   177 1
  197   188   177 1
  198   189   176 1
  199   190   176 1
  200   191   176 1
  201   192   175 1
  202   193   175 1
  203   194   175 1
  204   195   160 1
  205   196   160 1
  206   197   158 1
  207   198   158 1
  208   199   158 1
  209   200   157 1
  210   201   157 1
  211   202   157 1
  212   203   156 1
  213   204   156 1
  214   205   156 1
  215   206   155 1
  216   207   155 1
  217   208   155 1
  218   209   154 1
  219   210   154 1
  220   211   154 1
  221   212   141 1
  222   213   146 1
  223   214   145 1
  224   215   142 1
  225   216   142 1
  226   217   174 1
  227   218   173 1
  228   219   171 1
  229   220   170 1
  230   221   169 1
  231   222   140 1
  232   223   167 1
  233   224   166 1
  234   225   165 1
  235   226   163 1
  236   227   161 1
  237   228   139 1
  238   229   139 1
  239   230   153 1
  240   231   152 1
  241   232   150 1
  242   233   149 1
  243   234   148 1
  244   235   162 1
  245   65    153 1
  246   65    174 1
@<TRIPOS>SUBSTRUCTURE
      1 CLA               1 ****               0 ****  **** 
      2 LUT             138 ****               0 ****  **** 
