@<TRIPOS>MOLECULE
Cpptraj generated mol2 file.
  235   246     2     0     0
SMALL
USER_CHARGES


@<TRIPOS>ATOM
      1 CAA        78.1028   58.0254   34.5722 a2         1 CLA     -0.055900
      2 CAB        77.6762   61.5636   43.7705 c8         1 CLA     -0.148500
      3 CAC        71.0675   57.2299   43.0765 a2         1 CLA     -0.012600
      4 CAD        73.8941   55.3556   35.6948 ck         1 CLA      0.398800
      5 NA         76.9666   58.3855   38.0186 ns         1 CLA     -0.225500
      6 CBA        79.2488   58.0238   33.5667 a2         1 CLA     -0.135000
      7 CBB        77.4020   61.0559   45.0394 c0         1 CLA     -0.395200
      8 CBC        71.4193   55.7952   43.4617 a3         1 CLA     -0.037700
      9 CBD        75.3180   55.9656   35.3627 a1         1 CLA     -0.053900
     10 NB         76.6717   59.7669   40.6244 nm         1 CLA     -0.295700
     11 OBD        73.3496   54.4997   34.9733 o2         1 CLA     -0.494600
     12 CGA        79.8639   56.6091   33.2779 c4         1 CLA      0.827000
     13 CGD        76.3487   54.8308   35.0946 c4         1 CLA      0.655300
     14 ND         74.2330   57.3060   38.6516 nm         1 CLA     -0.291600
     15 CED        77.2699   52.6658   35.9346 a3         1 CLA      0.005400
     16 CHA        75.6561   56.9305   36.5734 cs         1 CLA     -0.123800
     17 CHB        78.6015   59.8449   39.0357 aa         1 CLA     -0.291900
     18 CHC        75.2775   59.9291   42.6667 aa         1 CLA     -0.090400
     19 CHD        72.3281   57.0452   40.2111 aa         1 CLA     -0.052000
     20 CMA        80.4328   57.8332   37.4578 a3         1 CLA     -0.230700
     21 CMB        79.9121   61.6527   41.4608 a3         1 CLA     -0.180800
     22 CMC        73.0318   59.2494   44.7857 a3         1 CLA     -0.134000
     23 CMD        71.2456   55.0369   37.9652 a3         1 CLA     -0.141100
     24 C1         81.0518   54.7444   34.2688 a2         1 CLA      0.023000
     25 C1A        76.8482   57.6851   36.8015 ac         1 CLA     -0.015100
     26 C1B        77.9260   60.2648   40.2258 cr         1 CLA      0.054700
     27 C1C        74.1799   59.1903   42.3588 cn         1 CLA     -0.005600
     28 C1D        73.0131   56.7713   39.0167 ap         1 CLA     -0.047300
     29 O1A        79.7514   55.8890   32.2279 o2         1 CLA     -0.610800
     30 O1D        77.1371   54.8052   34.1753 o2         1 CLA     -0.558200
     31 C2         81.7001   54.4330   35.6136 c8         1 CLA     -0.325100
     32 C2A        78.2081   57.5157   36.1002 a1         1 CLA      0.098600
     33 C2B        78.5035   61.0010   41.3376 cb         1 CLA      0.088500
     34 C2C        73.0360   58.9078   43.2499 cb         1 CLA      0.053700
     35 C2D        72.5143   55.8693   38.0185 cb         1 CLA      0.058900
     36 O2A        80.4782   56.1006   34.4362 o1         1 CLA     -0.437200
     37 O2D        76.3263   53.8091   35.9905 o1         1 CLA     -0.357600
     38 C3         82.4811   53.3861   35.9530 c5         1 CLA      0.031200
     39 C3A        79.1182   58.5108   36.9218 a1         1 CLA      0.166800
     40 C3B        77.5627   60.9720   42.4374 cb         1 CLA      0.035000
     41 C3C        72.2594   58.0176   42.5393 cb         1 CLA     -0.089900
     42 C3D        73.5292   55.9287   37.0535 cb         1 CLA     -0.035900
     43 C4         82.0945   52.0429   36.6074 a3         1 CLA     -0.053300
     44 C4A        78.1761   58.9605   38.0491 ac         1 CLA      0.001800
     45 C4B        76.4303   60.1688   41.9387 cn         1 CLA     -0.020900
     46 C4C        72.9035   57.8203   41.2299 cr         1 CLA     -0.044400
     47 C4D        74.5721   56.7772   37.4885 c6         1 CLA     -0.046000
     48 C5         83.9983   53.4299   35.6022 a2         1 CLA     -0.070400
     49 C6         84.6131   54.8171   35.7609 a2         1 CLA      0.043900
     50 C7         84.6062   55.3895   37.1737 a2         1 CLA     -0.150000
     51 C8         85.3691   56.7004   37.4244 a1         1 CLA      0.064200
     52 C9         86.8253   56.7523   36.8286 a3         1 CLA     -0.259300
     53 C10        85.4343   57.2007   38.9623 a2         1 CLA     -0.071900
     54 C11        84.0870   57.5038   39.6404 a2         1 CLA      0.014500
     55 C12        84.1254   58.2454   40.9894 a2         1 CLA     -0.112100
     56 C13        84.6378   57.5960   42.2699 a1         1 CLA      0.089200
     57 C14        83.7966   56.3119   42.6555 a3         1 CLA     -0.239100
     58 C15        84.7345   58.5223   43.5297 a2         1 CLA     -0.102200
     59 C16        83.4609   59.2584   43.9429 a2         1 CLA      0.023900
     60 C17        83.5357   60.1299   45.2012 a2         1 CLA     -0.105700
     61 C18        82.2925   60.9429   45.4616 a1         1 CLA      0.206800
     62 C19        81.0322   60.0867   45.5414 a3         1 CLA     -0.280100
     63 C20        82.5135   61.8558   46.6631 a3         1 CLA     -0.280100
     64 NC         74.0603   58.5884   41.1473 nx         1 CLA     -0.309200
     65 MG         75.4278   58.6714   39.5301 mg         1 CLA      0.895000
     66 HMD3       71.1276   54.4268   38.9744 dc         1 CLA      0.064300
     67 HMD2       70.4208   55.6756   37.9114 dc         1 CLA      0.064300
     68 HMD1       71.1649   54.2963   37.2547 dc         1 CLA      0.064300
     69 HMC3       73.6164   58.4879   45.2874 dc         1 CLA      0.052100
     70 HMC2       73.5790   60.1904   44.8937 dc         1 CLA      0.052100
     71 HMC1       72.0941   59.3110   45.1823 dc         1 CLA      0.052100
     72 HMB3       80.6235   60.7755   41.5670 dc         1 CLA      0.063600
     73 HMB2       80.0735   62.1502   40.4642 dc         1 CLA      0.063600
     74 HMB1       80.0095   62.2830   42.3454 dc         1 CLA      0.063600
     75 HMA3       80.1619   56.9807   38.0253 dc         1 CLA      0.058300
     76 HMA2       80.9726   57.4458   36.6511 dc         1 CLA      0.058300
     77 HMA1       81.0472   58.4932   38.0072 dc         1 CLA      0.058300
     78 HED3       77.0536   52.0329   36.7858 dc         1 CLA      0.079300
     79 HED2       77.1325   51.9418   35.0911 dc         1 CLA      0.079300
     80 HED1       78.3038   53.0115   36.1691 dc         1 CLA      0.079300
     81 HBC3       72.3042   55.7436   44.1160 dc         1 CLA      0.016300
     82 HBC2       70.6274   55.4789   44.1944 dc         1 CLA      0.016300
     83 HBC1       71.4592   55.1703   42.5706 dc         1 CLA      0.016300
     84 HBB2       77.4955   61.7795   45.8976 da         1 CLA      0.183000
     85 HBB1       77.0284   60.1267   45.1758 da         1 CLA      0.183000
     86 HBA2       79.0883   58.5752   32.6395 dc         1 CLA      0.029400
     87 HBA1       80.1783   58.5557   34.0473 dc         1 CLA      0.029400
     88 HAC2       70.7914   57.7535   43.9713 dc         1 CLA      0.029300
     89 HAC1       70.1492   57.2985   42.4747 dc         1 CLA      0.029300
     90 HAA2       77.2431   57.4538   34.1638 dc         1 CLA      0.028700
     91 HAA1       77.7524   59.0377   34.6176 dc         1 CLA      0.028700
     92 H203       81.8679   62.7112   46.8739 dc         1 CLA      0.065600
     93 H202       82.3398   61.2986   47.5689 dc         1 CLA      0.065600
     94 H201       83.5687   62.2039   46.7112 dc         1 CLA      0.065600
     95 H193       81.3900   59.1506   46.0064 dc         1 CLA      0.065600
     96 H192       80.3555   60.5625   46.2961 dc         1 CLA      0.065600
     97 H191       80.5679   59.9221   44.5757 dc         1 CLA      0.065600
     98 H172       83.7708   59.4610   46.0596 dc         1 CLA      0.027600
     99 H171       84.3305   60.8756   45.1135 dc         1 CLA      0.027600
    100 H162       83.3371   59.9449   43.0879 dc         1 CLA      0.002900
    101 H161       82.6427   58.5768   43.9392 dc         1 CLA      0.002900
    102 H152       85.0726   57.9083   44.3194 dc         1 CLA      0.029100
    103 H151       85.4376   59.3097   43.4893 dc         1 CLA      0.029100
    104 H143       84.1748   56.0839   43.6137 dc         1 CLA      0.063600
    105 H142       82.7364   56.4830   42.6886 dc         1 CLA      0.063600
    106 H141       83.9625   55.5543   41.8937 dc         1 CLA      0.063600
    107 H122       84.6216   59.1442   40.8408 dc         1 CLA      0.032500
    108 H121       83.0970   58.5708   41.2193 dc         1 CLA      0.032500
    109 H112       83.3749   58.1048   39.0130 dc         1 CLA      0.006600
    110 H111       83.5817   56.5599   39.8514 dc         1 CLA      0.006600
    111 H102       85.8484   56.3080   39.5203 dc         1 CLA      0.024100
    112 H101       86.2080   57.9698   39.1024 dc         1 CLA      0.024100
    113 HHD        71.4130   56.5499   40.3902 da         1 CLA      0.174300
    114 HHC        75.3262   60.1880   43.7219 da         1 CLA      0.136800
    115 HHB        79.5888   60.3117   38.7308 da         1 CLA      0.138300
    116 HBD        75.2104   56.5519   34.4385 dc         1 CLA      0.107700
    117 HAB        77.9588   62.6089   43.7839 da         1 CLA      0.155200
    118 H93        87.5643   55.9873   37.0322 dc         1 CLA      0.069500
    119 H92        86.6939   56.7495   35.7505 dc         1 CLA      0.069500
    120 H91        87.2771   57.7049   36.9878 dc         1 CLA      0.069500
    121 H8         84.8217   57.5148   36.9083 dc         1 CLA      0.029300
    122 H72        83.5509   55.5163   37.4499 dc         1 CLA      0.044400
    123 H71        85.0033   54.6232   37.8344 dc         1 CLA      0.044400
    124 H62        85.5838   54.7524   35.3234 dc         1 CLA      0.015600
    125 H61        84.0147   55.4739   35.2067 dc         1 CLA      0.015600
    126 H52        84.4782   52.7769   36.2902 dc         1 CLA      0.033200
    127 H51        84.2531   52.9338   34.6502 dc         1 CLA      0.033200
    128 H43        81.0507   51.9695   36.5958 dc         1 CLA      0.037000
    129 H42        82.5008   51.1183   36.1396 dc         1 CLA      0.037000
    130 H41        82.3880   52.0844   37.6673 dc         1 CLA      0.037000
    131 H3A        79.3836   59.4005   36.3723 dc         1 CLA      0.041100
    132 H2A        78.5382   56.4390   36.2478 dc         1 CLA      0.083100
    133 H2         81.7524   55.2256   36.3571 da         1 CLA      0.180900
    134 H18        82.1665   61.6865   44.6137 dc         1 CLA     -0.003900
    135 H13        85.6453   57.2828   42.1130 dc         1 CLA      0.019700
    136 H12        80.2919   54.0277   34.0416 dc         1 CLA      0.120400
    137 H11        81.8131   54.6535   33.4427 dc         1 CLA      0.120400
    138 C1         68.3117   60.9648   50.4053 Z1         2 LUT      0.509236
    139 C2         67.7717   61.3862   51.7614 Z2         2 LUT     -0.434695
    140 C3         66.2514   61.4528   51.6054 Z3         2 LUT      0.437453
    141 O3         65.6651   62.1140   52.7373 S1         2 LUT     -0.547129
    142 C4         65.9508   62.5253   50.4951 Z4         2 LUT     -0.468603
    143 C5         66.6283   62.2861   49.1810 Z5         2 LUT      0.279246
    144 C6         67.7368   61.5271   49.0967 Z6         2 LUT     -0.305473
    145 C7         68.4847   61.2793   47.8076 Z7         2 LUT      0.069402
    146 C8         69.2253   62.1154   47.0212 Z8         2 LUT     -0.191631
    147 C9         69.7930   61.8228   45.6832 Z9         2 LUT      0.196698
    148 C10        70.8342   62.6144   45.2264 Y1         2 LUT     -0.208611
    149 C11        71.5050   62.5428   43.9335 Y2         2 LUT      0.030784
    150 C12        72.5308   63.3837   43.5120 Y3         2 LUT     -0.220316
    151 C13        73.2974   63.0890   42.3678 Y4         2 LUT      0.215937
    152 C14        74.5630   63.6621   42.2231 Y5         2 LUT     -0.185793
    153 C15        75.6566   63.3343   41.2777 Y6         2 LUT     -0.057835
    154 C16        68.2366   59.4089   50.3303 Y7         2 LUT     -0.405615
    155 C17        69.8873   61.1679   50.3304 Y7         2 LUT     -0.405615
    156 C18        66.1471   63.2073   48.0687 Y9         2 LUT     -0.369639
    157 C19        69.5029   60.4936   45.0652 W1         2 LUT     -0.333362
    158 C20        72.5830   62.3105   41.2549 W2         2 LUT     -0.323439
    159 C21        86.6429   64.7220   34.7736 Z1         2 LUT      0.406104
    160 C22        87.5838   64.4335   33.6638 Z2         2 LUT     -0.404965
    161 C23        87.7192   65.5332   32.6485 Z3         2 LUT      0.391255
    162 O23        88.5504   64.9747   31.6128 S1         2 LUT     -0.528210
    163 C24        86.6000   66.4371   32.5478 W6         2 LUT     -0.258361
    164 C25        85.4613   66.3275   33.2433 Z5         2 LUT      0.133546
    165 C26        85.2867   65.2881   34.3362 W8         2 LUT     -0.147008
    166 C27        84.5803   65.9065   35.4480 Z7         2 LUT      0.023843
    167 C28        83.5435   65.4219   36.1555 Z8         2 LUT     -0.216987
    168 C29        82.7641   66.0173   37.2296 Z9         2 LUT      0.206524
    169 C30        81.7343   65.2379   37.7671 Y1         2 LUT     -0.215556
    170 C31        80.8224   65.6698   38.7958 Y2         2 LUT      0.025142
    171 C32        79.8479   64.8866   39.2541 Y3         2 LUT     -0.212209
    172 C33        78.9330   64.9733   40.3460 Y4         2 LUT      0.240937
    173 C34        77.8628   64.1354   40.4091 Y5         2 LUT     -0.218862
    174 C35        76.7324   64.1977   41.3389 Y6         2 LUT     -0.023547
    175 C36        87.4391   65.7296   35.6307 Y7         2 LUT     -0.393485
    176 C37        86.5860   63.4355   35.6282 Y7         2 LUT     -0.393485
    177 C38        84.3657   67.3863   33.0285 Y9         2 LUT     -0.387526
    178 C39        83.1281   67.3931   37.7118 W1         2 LUT     -0.322618
    179 C40        79.0241   66.2384   41.1924 W2         2 LUT     -0.358472
    180 H403       78.4493   67.1220   40.7305 R7         2 LUT      0.097720
    181 H402       78.5404   66.1333   42.1150 R7         2 LUT      0.097720
    182 H401       80.0238   66.5067   41.5063 R7         2 LUT      0.097720
    183 H393       82.6941   68.1952   37.0688 R4         2 LUT      0.082505
    184 H392       82.8476   67.6203   38.7773 R4         2 LUT      0.082505
    185 H391       84.1818   67.4564   37.6832 R4         2 LUT      0.082505
    186 H383       84.4229   68.1599   33.7658 R1         2 LUT      0.104030
    187 H382       84.4759   67.8276   32.0127 R1         2 LUT      0.104030
    188 H381       83.4193   66.9020   32.9705 R1         2 LUT      0.104030
    189 H373       85.9533   63.5155   36.5145 T4         2 LUT      0.089537
    190 H372       86.2038   62.6597   34.9890 T4         2 LUT      0.089537
    191 H371       87.5359   63.1633   36.0075 T4         2 LUT      0.089537
    192 H363       88.4200   65.4044   35.8584 T4         2 LUT      0.089537
    193 H362       87.4411   66.7259   35.1346 T4         2 LUT      0.089537
    194 H361       86.9568   65.8633   36.6469 T4         2 LUT      0.089537
    195 H222       88.5499   64.1758   34.1293 U2         2 LUT      0.127376
    196 H221       87.1842   63.5121   33.0788 U2         2 LUT      0.127376
    197 H203       72.8959   61.2822   41.1581 R7         2 LUT      0.087068
    198 H202       71.4839   62.4474   41.3028 R7         2 LUT      0.087068
    199 H201       72.8444   62.7498   40.3534 R7         2 LUT      0.087068
    200 H193       69.7835   60.4579   44.0774 R4         2 LUT      0.089716
    201 H192       69.9639   59.6493   45.5560 R4         2 LUT      0.089716
    202 H191       68.4598   60.4306   45.0949 R4         2 LUT      0.089716
    203 H183       66.9803   63.7390   47.6546 R1         2 LUT      0.094572
    204 H182       65.7188   62.6942   47.2555 R1         2 LUT      0.094572
    205 H181       65.5099   63.9577   48.4785 R1         2 LUT      0.094572
    206 H173       70.2110   60.4851   49.4636 T4         2 LUT      0.093752
    207 H172       70.0935   62.2188   50.1290 T4         2 LUT      0.093752
    208 H171       70.4464   60.8744   51.2495 T4         2 LUT      0.093752
    209 H163       68.5198   58.7515   51.1673 T4         2 LUT      0.093752
    210 H162       67.2659   59.0135   50.1407 T4         2 LUT      0.093752
    211 H161       68.7563   59.0743   49.4050 T4         2 LUT      0.093752
    212 HO3        65.6690   61.5908   53.5525 Q1         2 LUT      0.300121
    213 H8         69.3282   63.0440   47.4279 U7         2 LUT      0.080784
    214 H7         68.2242   60.2886   47.4015 U6         2 LUT      0.042190
    215 H42        64.8311   62.5231   50.3846 U5         2 LUT      0.145166
    216 H41        66.2681   63.5765   50.8478 U5         2 LUT      0.145166
    217 H35        76.7680   65.0060   42.0564 T3         2 LUT      0.077919
    218 H34        77.8932   63.2618   39.6961 T2         2 LUT      0.073626
    219 H32        79.7732   63.9516   38.6490 T1         2 LUT      0.092510
    220 H31        81.0771   66.5978   39.2494 U9         2 LUT      0.070048
    221 H30        81.5649   64.2852   37.3150 U8         2 LUT      0.085442
    222 H3         65.6087   60.5341   51.4030 U3         2 LUT     -0.031596
    223 H28        83.2361   64.4580   35.9267 U7         2 LUT      0.084728
    224 H27        84.9200   66.9348   35.7408 U6         2 LUT      0.087291
    225 H26        84.6628   64.5125   33.7798 Q6         2 LUT      0.075325
    226 H24        86.6182   67.2198   31.8049 Q5         2 LUT      0.094482
    227 H23        88.4573   66.1240   33.1944 U3         2 LUT     -0.024869
    228 H22        68.0160   60.6074   52.4937 U2         2 LUT      0.127376
    229 H21        68.1515   62.3895   51.9503 U2         2 LUT      0.127376
    230 H15        75.5191   62.5017   40.5875 T3         2 LUT      0.093200
    231 H14        74.7966   64.4114   42.9662 T2         2 LUT      0.068865
    232 H12        72.9286   64.1959   44.0729 T1         2 LUT      0.095507
    233 H11        71.2805   61.6208   43.3459 U9         2 LUT      0.068930
    234 H10        71.0428   63.5077   45.8214 U8         2 LUT      0.083911
    235 H1         87.9785   64.6402   30.9127 Q1         2 LUT      0.297311
@<TRIPOS>BOND
    1     6     1 1
    2     7     2 1
    3     8     3 1
    4     9     4 1
    5    11     4 1
    6    12     6 1
    7    13     9 1
    8    16     9 1
    9    25     5 1
   10    25    16 1
   11    26    10 1
   12    26    17 1
   13    27    18 1
   14    28    14 1
   15    28    19 1
   16    29    12 1
   17    30    13 1
   18    31    24 1
   19    32     1 1
   20    32    25 1
   21    33    21 1
   22    33    26 1
   23    34    22 1
   24    34    27 1
   25    35    23 1
   26    35    28 1
   27    36    12 1
   28    36    24 1
   29    37    13 1
   30    37    15 1
   31    38    31 1
   32    39    20 1
   33    39    32 1
   34    40     2 1
   35    40    33 1
   36    41     3 1
   37    41    34 1
   38    42     4 1
   39    42    35 1
   40    43    38 1
   41    44     5 1
   42    44    17 1
   43    44    39 1
   44    45    10 1
   45    45    18 1
   46    45    40 1
   47    46    19 1
   48    46    41 1
   49    47    14 1
   50    47    16 1
   51    47    42 1
   52    48    38 1
   53    49    48 1
   54    50    49 1
   55    51    50 1
   56    52    51 1
   57    53    51 1
   58    54    53 1
   59    55    54 1
   60    56    55 1
   61    57    56 1
   62    58    56 1
   63    59    58 1
   64    60    59 1
   65    61    60 1
   66    62    61 1
   67    63    61 1
   68    64    27 1
   69    64    46 1
   70    65     5 1
   71    65    10 1
   72    65    64 1
   73    65    14 1
   74    66    23 1
   75    67    23 1
   76    68    23 1
   77    69    22 1
   78    70    22 1
   79    71    22 1
   80    72    21 1
   81    73    21 1
   82    74    21 1
   83    75    20 1
   84    76    20 1
   85    77    20 1
   86    78    15 1
   87    79    15 1
   88    80    15 1
   89    81     8 1
   90    82     8 1
   91    83     8 1
   92    84     7 1
   93    85     7 1
   94    86     6 1
   95    87     6 1
   96    88     3 1
   97    89     3 1
   98    90     1 1
   99    91     1 1
  100    92    63 1
  101    93    63 1
  102    94    63 1
  103    95    62 1
  104    96    62 1
  105    97    62 1
  106    98    60 1
  107    99    60 1
  108   100    59 1
  109   101    59 1
  110   102    58 1
  111   103    58 1
  112   104    57 1
  113   105    57 1
  114   106    57 1
  115   107    55 1
  116   108    55 1
  117   109    54 1
  118   110    54 1
  119   111    53 1
  120   112    53 1
  121   113    19 1
  122   114    18 1
  123   115    17 1
  124   116     9 1
  125   117     2 1
  126   118    52 1
  127   119    52 1
  128   120    52 1
  129   121    51 1
  130   122    50 1
  131   123    50 1
  132   124    49 1
  133   125    49 1
  134   126    48 1
  135   127    48 1
  136   128    43 1
  137   129    43 1
  138   130    43 1
  139   131    39 1
  140   132    32 1
  141   133    31 1
  142   134    61 1
  143   135    56 1
  144   136    24 1
  145   137    24 1
  146   139   138 1
  147   140   139 1
  148   141   140 1
  149   142   140 1
  150   143   142 1
  151   144   138 1
  152   144   143 1
  153   145   144 1
  154   146   145 1
  155   147   146 1
  156   148   147 1
  157   149   148 1
  158   150   149 1
  159   151   150 1
  160   152   151 1
  161   153   152 1
  162   154   138 1
  163   155   138 1
  164   156   143 1
  165   157   147 1
  166   158   151 1
  167   160   159 1
  168   161   160 1
  169   162   161 1
  170   163   161 1
  171   164   163 1
  172   165   159 1
  173   165   164 1
  174   166   165 1
  175   167   166 1
  176   168   167 1
  177   169   168 1
  178   170   169 1
  179   171   170 1
  180   172   171 1
  181   173   172 1
  182   174   153 1
  183   174   173 1
  184   175   159 1
  185   176   159 1
  186   177   164 1
  187   178   168 1
  188   179   172 1
  189   180   179 1
  190   181   179 1
  191   182   179 1
  192   183   178 1
  193   184   178 1
  194   185   178 1
  195   186   177 1
  196   187   177 1
  197   188   177 1
  198   189   176 1
  199   190   176 1
  200   191   176 1
  201   192   175 1
  202   193   175 1
  203   194   175 1
  204   195   160 1
  205   196   160 1
  206   197   158 1
  207   198   158 1
  208   199   158 1
  209   200   157 1
  210   201   157 1
  211   202   157 1
  212   203   156 1
  213   204   156 1
  214   205   156 1
  215   206   155 1
  216   207   155 1
  217   208   155 1
  218   209   154 1
  219   210   154 1
  220   211   154 1
  221   212   141 1
  222   213   146 1
  223   214   145 1
  224   215   142 1
  225   216   142 1
  226   217   174 1
  227   218   173 1
  228   219   171 1
  229   220   170 1
  230   221   169 1
  231   222   140 1
  232   223   167 1
  233   224   166 1
  234   225   165 1
  235   226   163 1
  236   227   161 1
  237   228   139 1
  238   229   139 1
  239   230   153 1
  240   231   152 1
  241   232   150 1
  242   233   149 1
  243   234   148 1
  244   235   162 1
  245   65    153 1
  246   65    174 1
@<TRIPOS>SUBSTRUCTURE
      1 CLA               1 ****               0 ****  **** 
      2 LUT             138 ****               0 ****  **** 
