@<TRIPOS>MOLECULE
Cpptraj generated mol2 file.
  235   246     2     0     0
SMALL
USER_CHARGES


@<TRIPOS>ATOM
      1 CAA        78.5436   56.8890   34.9982 a2         1 CLA     -0.055900
      2 CAB        78.2602   61.4021   43.7703 c8         1 CLA     -0.148500
      3 CAC        71.4644   57.3176   43.2111 a2         1 CLA     -0.012600
      4 CAD        74.1824   54.8013   36.1584 ck         1 CLA      0.398800
      5 NA         77.4950   57.5769   38.4101 ns         1 CLA     -0.225500
      6 CBA        79.8225   56.7527   34.1550 a2         1 CLA     -0.135000
      7 CBB        79.3812   61.4558   44.5375 c0         1 CLA     -0.395200
      8 CBC        71.4465   55.8428   43.3505 a3         1 CLA     -0.037700
      9 CBD        75.7225   55.1731   35.9114 a1         1 CLA     -0.053900
     10 NB         77.2977   59.2603   40.9589 nm         1 CLA     -0.295700
     11 OBD        73.5848   54.0261   35.4134 o2         1 CLA     -0.494600
     12 CGA        80.2184   55.3041   33.8440 c4         1 CLA      0.827000
     13 CGD        76.5105   53.8390   35.8557 c4         1 CLA      0.655300
     14 ND         74.7211   56.9618   38.9748 nm         1 CLA     -0.291600
     15 CED        76.6582   51.5368   36.6039 a3         1 CLA      0.005400
     16 CHA        76.1243   56.1393   37.0491 cs         1 CLA     -0.123800
     17 CHB        79.1936   59.0309   39.3542 aa         1 CLA     -0.291900
     18 CHC        75.9409   59.7658   42.9348 aa         1 CLA     -0.090400
     19 CHD        72.8007   57.0177   40.4604 aa         1 CLA     -0.052000
     20 CMA        80.8917   56.9663   37.6590 a3         1 CLA     -0.230700
     21 CMB        80.5223   61.1503   41.2288 a3         1 CLA     -0.180800
     22 CMC        73.4954   59.4097   44.8502 a3         1 CLA     -0.134000
     23 CMD        71.3973   55.1505   38.2954 a3         1 CLA     -0.141100
     24 C1         80.9533   53.2676   34.7941 a2         1 CLA      0.023000
     25 C1A        77.3536   56.7845   37.3003 ac         1 CLA     -0.015100
     26 C1B        78.5514   59.5830   40.4414 cr         1 CLA      0.054700
     27 C1C        74.7655   59.0799   42.6181 cn         1 CLA     -0.005600
     28 C1D        73.4230   56.5650   39.2572 ap         1 CLA     -0.047300
     29 O1A        80.1158   54.7831   32.7208 o2         1 CLA     -0.610800
     30 O1D        77.5404   53.6358   35.2459 o2         1 CLA     -0.558200
     31 C2         80.9536   52.6773   36.1895 c8         1 CLA     -0.325100
     32 C2A        78.6867   56.6275   36.5448 a1         1 CLA      0.098600
     33 C2B        79.1589   60.5234   41.3577 cb         1 CLA      0.088500
     34 C2C        73.6702   58.7861   43.4356 cb         1 CLA      0.053700
     35 C2D        72.7817   55.7022   38.2978 cb         1 CLA      0.058900
     36 O2A        80.6684   54.6802   34.9703 o1         1 CLA     -0.437200
     37 O2D        76.0678   52.8860   36.7861 o1         1 CLA     -0.357600
     38 C3         81.9679   52.4329   37.0152 c5         1 CLA      0.031200
     39 C3A        79.5891   57.6286   37.2507 a1         1 CLA      0.166800
     40 C3B        78.2338   60.6428   42.4765 cb         1 CLA      0.035000
     41 C3C        72.8066   57.9708   42.8034 cb         1 CLA     -0.089900
     42 C3D        73.8193   55.4974   37.3454 cb         1 CLA     -0.035900
     43 C4         82.8776   51.2033   36.9098 a3         1 CLA     -0.053300
     44 C4A        78.7381   58.0885   38.4640 ac         1 CLA      0.001800
     45 C4B        77.0959   59.8811   42.1415 cn         1 CLA     -0.020900
     46 C4C        73.3784   57.7649   41.4837 cr         1 CLA     -0.044400
     47 C4D        74.9641   56.2657   37.8305 c6         1 CLA     -0.046000
     48 C5         82.2002   53.3112   38.2020 a2         1 CLA     -0.070400
     49 C6         83.4341   54.1983   38.1401 a2         1 CLA      0.043900
     50 C7         83.4635   55.1705   39.4106 a2         1 CLA     -0.150000
     51 C8         84.3937   56.3823   39.3346 a1         1 CLA      0.064200
     52 C9         85.7975   55.9667   39.0037 a3         1 CLA     -0.259300
     53 C10        84.4672   57.1469   40.7480 a2         1 CLA     -0.071900
     54 C11        83.1625   57.6731   41.2975 a2         1 CLA      0.014500
     55 C12        83.4195   58.5875   42.4608 a2         1 CLA     -0.112100
     56 C13        84.5068   58.2972   43.5862 a1         1 CLA      0.089200
     57 C14        84.0836   57.0669   44.4726 a3         1 CLA     -0.239100
     58 C15        84.7421   59.5189   44.5492 a2         1 CLA     -0.102200
     59 C16        83.5362   60.2126   45.1567 a2         1 CLA      0.023900
     60 C17        83.9594   61.3872   46.1246 a2         1 CLA     -0.105700
     61 C18        82.8217   62.0561   46.9487 a1         1 CLA      0.206800
     62 C19        82.0958   61.0545   47.9980 a3         1 CLA     -0.280100
     63 C20        83.4582   63.2167   47.6675 a3         1 CLA     -0.280100
     64 NC         74.6313   58.3406   41.4297 nx         1 CLA     -0.309200
     65 MG         75.9836   58.1643   39.8582 mg         1 CLA      0.895000
     66 HMD3       70.6999   55.8990   37.9891 dc         1 CLA      0.064300
     67 HMD2       71.2627   54.2985   37.6861 dc         1 CLA      0.064300
     68 HMD1       71.0634   54.7254   39.2253 dc         1 CLA      0.064300
     69 HMC3       73.2093   58.7162   45.6325 dc         1 CLA      0.052100
     70 HMC2       74.4834   59.7037   45.1548 dc         1 CLA      0.052100
     71 HMC1       72.6741   60.1792   44.8909 dc         1 CLA      0.052100
     72 HMB3       80.4538   61.9844   41.9392 dc         1 CLA      0.063600
     73 HMB2       81.2847   60.4652   41.4839 dc         1 CLA      0.063600
     74 HMB1       80.6548   61.4655   40.1918 dc         1 CLA      0.063600
     75 HMA3       80.7558   56.0907   38.2919 dc         1 CLA      0.058300
     76 HMA2       81.4406   56.6202   36.8333 dc         1 CLA      0.058300
     77 HMA1       81.3909   57.6789   38.1921 dc         1 CLA      0.058300
     78 HED3       77.7333   51.4852   36.4284 dc         1 CLA      0.079300
     79 HED2       76.2826   50.9959   37.4860 dc         1 CLA      0.079300
     80 HED1       76.3282   51.1304   35.6502 dc         1 CLA      0.079300
     81 HBC3       70.6393   55.5629   43.9981 dc         1 CLA      0.016300
     82 HBC2       71.4056   55.3961   42.3373 dc         1 CLA      0.016300
     83 HBC1       72.2947   55.3944   43.8305 dc         1 CLA      0.016300
     84 HBB2       79.4803   62.0954   45.4661 da         1 CLA      0.183000
     85 HBB1       80.3843   60.9904   44.2966 da         1 CLA      0.183000
     86 HBA2       79.4988   57.2410   33.1694 dc         1 CLA      0.029400
     87 HBA1       80.6533   57.3077   34.4688 dc         1 CLA      0.029400
     88 HAC2       71.1938   57.6967   44.2054 dc         1 CLA      0.029300
     89 HAC1       70.6509   57.6133   42.5035 dc         1 CLA      0.029300
     90 HAA2       77.8574   56.1707   34.5281 dc         1 CLA      0.028700
     91 HAA1       78.1068   57.8560   34.8665 dc         1 CLA      0.028700
     92 H203       84.3961   62.8716   48.1300 dc         1 CLA      0.065600
     93 H202       83.5891   64.0261   46.9130 dc         1 CLA      0.065600
     94 H201       82.7063   63.5999   48.4239 dc         1 CLA      0.065600
     95 H193       81.6421   60.1867   47.4880 dc         1 CLA      0.065600
     96 H192       82.8928   60.6831   48.5502 dc         1 CLA      0.065600
     97 H191       81.4276   61.5498   48.6913 dc         1 CLA      0.065600
     98 H172       84.7942   61.1693   46.8261 dc         1 CLA      0.027600
     99 H171       84.3449   62.1991   45.4895 dc         1 CLA      0.027600
    100 H162       82.8256   60.6846   44.4377 dc         1 CLA      0.002900
    101 H161       82.9258   59.5187   45.6747 dc         1 CLA      0.002900
    102 H152       85.3433   59.1805   45.3801 dc         1 CLA      0.029100
    103 H151       85.2614   60.2104   43.8620 dc         1 CLA      0.029100
    104 H143       84.7079   56.9586   45.3484 dc         1 CLA      0.063600
    105 H142       83.0931   57.2591   44.7693 dc         1 CLA      0.063600
    106 H141       84.0756   56.1821   43.8161 dc         1 CLA      0.063600
    107 H122       83.7081   59.4723   41.8429 dc         1 CLA      0.032500
    108 H121       82.4558   58.8036   42.8789 dc         1 CLA      0.032500
    109 H112       82.6260   58.2212   40.5390 dc         1 CLA      0.006600
    110 H111       82.6482   56.7971   41.6153 dc         1 CLA      0.006600
    111 H102       84.8113   56.4261   41.5508 dc         1 CLA      0.024100
    112 H101       85.1579   57.9935   40.5984 dc         1 CLA      0.024100
    113 HHD        71.8107   56.7755   40.6867 da         1 CLA      0.174300
    114 HHC        76.0280   60.3358   43.8753 da         1 CLA      0.136800
    115 HHB        80.1814   59.4592   39.2187 da         1 CLA      0.138300
    116 HBD        75.7245   55.6454   34.8771 dc         1 CLA      0.107700
    117 HAB        77.3784   62.0319   43.9795 da         1 CLA      0.155200
    118 H93        85.8820   55.7057   37.9485 dc         1 CLA      0.069500
    119 H92        86.5193   56.7155   39.2241 dc         1 CLA      0.069500
    120 H91        86.0053   55.0754   39.6887 dc         1 CLA      0.069500
    121 H8         84.1047   57.1230   38.5332 dc         1 CLA      0.029300
    122 H72        82.4792   55.5264   39.5131 dc         1 CLA      0.044400
    123 H71        83.6022   54.5581   40.2983 dc         1 CLA      0.044400
    124 H62        84.3559   53.7117   37.9723 dc         1 CLA      0.015600
    125 H61        83.3739   54.8369   37.1821 dc         1 CLA      0.015600
    126 H52        81.2728   53.9823   38.3662 dc         1 CLA      0.033200
    127 H51        82.3897   52.6132   39.0546 dc         1 CLA      0.033200
    128 H43        83.8699   51.5621   37.1215 dc         1 CLA      0.037000
    129 H42        82.7413   50.4131   37.6750 dc         1 CLA      0.037000
    130 H41        82.8736   50.8682   35.9002 dc         1 CLA      0.037000
    131 H3A        79.7681   58.5247   36.6033 dc         1 CLA      0.041100
    132 H2A        78.9369   55.6345   36.7217 dc         1 CLA      0.083100
    133 H2         79.9898   52.1454   36.4831 da         1 CLA      0.180900
    134 H18        82.0807   62.4521   46.2669 dc         1 CLA     -0.003900
    135 H13        85.4480   58.1864   43.0528 dc         1 CLA      0.019700
    136 H12        80.2698   52.7447   34.0930 dc         1 CLA      0.120400
    137 H11        81.9845   53.0840   34.4002 dc         1 CLA      0.120400
    138 C1         68.1479   60.9663   49.6000 Z1         2 LUT      0.509236
    139 C2         66.7447   60.8398   50.2526 Z2         2 LUT     -0.434695
    140 C3         65.9704   62.1173   50.6068 Z3         2 LUT      0.437453
    141 O3         66.6199   62.7216   51.7598 S1         2 LUT     -0.547129
    142 C4         66.1125   63.1966   49.5354 Z4         2 LUT     -0.468603
    143 C5         66.9718   62.8717   48.3247 Z5         2 LUT      0.279246
    144 C6         67.9009   61.8375   48.3604 Z6         2 LUT     -0.305473
    145 C7         68.4701   61.3491   47.0513 Z7         2 LUT      0.069402
    146 C8         69.2499   61.9264   46.1526 Z8         2 LUT     -0.191631
    147 C9         69.8610   61.5056   44.9266 Z9         2 LUT      0.196698
    148 C10        70.7411   62.3184   44.3342 Y1         2 LUT     -0.208611
    149 C11        71.5382   62.0967   43.1454 Y2         2 LUT      0.030784
    150 C12        72.7985   62.6017   43.0322 Y3         2 LUT     -0.220316
    151 C13        73.7791   62.4293   41.9788 Y4         2 LUT      0.215937
    152 C14        74.9693   63.1115   42.0720 Y5         2 LUT     -0.185793
    153 C15        76.1045   63.1119   41.2040 Y6         2 LUT     -0.057835
    154 C16        68.6301   59.5159   49.3741 Y7         2 LUT     -0.405615
    155 C17        69.1380   61.7683   50.5344 Y7         2 LUT     -0.405615
    156 C18        66.7237   63.8320   47.2333 Y9         2 LUT     -0.369639
    157 C19        69.4543   60.2026   44.4700 W1         2 LUT     -0.333362
    158 C20        73.5409   61.4378   40.8863 W2         2 LUT     -0.323439
    159 C21        87.8777   64.5523   35.3185 Z1         2 LUT      0.406104
    160 C22        88.6822   64.1548   34.1649 Z2         2 LUT     -0.404965
    161 C23        88.8423   65.1039   33.0332 Z3         2 LUT      0.391255
    162 O23        89.5606   64.4476   31.9697 S1         2 LUT     -0.528210
    163 C24        87.4562   65.8162   32.6978 W6         2 LUT     -0.258361
    164 C25        86.3991   65.7976   33.5549 Z5         2 LUT      0.133546
    165 C26        86.4581   64.8794   34.7828 W8         2 LUT     -0.147008
    166 C27        85.5321   65.4895   35.8488 Z7         2 LUT      0.023843
    167 C28        84.4416   64.8775   36.3516 Z8         2 LUT     -0.216987
    168 C29        83.6676   65.2755   37.5160 Z9         2 LUT      0.206524
    169 C30        82.5061   64.6135   37.9176 Y1         2 LUT     -0.215556
    170 C31        81.6548   64.8382   39.0599 Y2         2 LUT      0.025142
    171 C32        80.5020   64.1583   39.3725 Y3         2 LUT     -0.212209
    172 C33        79.5804   64.4289   40.4986 Y4         2 LUT      0.240937
    173 C34        78.3424   63.7256   40.4801 Y5         2 LUT     -0.218862
    174 C35        77.2103   63.8751   41.3522 Y6         2 LUT     -0.023547
    175 C36        88.4491   65.7637   36.1288 Y7         2 LUT     -0.393485
    176 C37        87.7605   63.4341   36.4556 Y7         2 LUT     -0.393485
    177 C38        85.1361   66.5677   33.2138 Y9         2 LUT     -0.387526
    178 C39        84.2231   66.3193   38.4561 W1         2 LUT     -0.322618
    179 C40        79.8947   65.5539   41.4576 W2         2 LUT     -0.358472
    180 H403       80.6822   65.2635   42.2115 R7         2 LUT      0.097720
    181 H402       80.2117   66.5031   40.9276 R7         2 LUT      0.097720
    182 H401       78.9690   65.8681   41.9629 R7         2 LUT      0.097720
    183 H393       85.2910   66.5374   38.2307 R4         2 LUT      0.082505
    184 H392       83.8517   67.3253   38.2779 R4         2 LUT      0.082505
    185 H391       84.1192   66.1406   39.5007 R4         2 LUT      0.082505
    186 H383       85.3008   67.6566   33.3696 R1         2 LUT      0.104030
    187 H382       84.8905   66.3557   32.2207 R1         2 LUT      0.104030
    188 H381       84.2105   66.2719   33.7484 R1         2 LUT      0.104030
    189 H373       88.7131   63.3279   36.9554 T4         2 LUT      0.089537
    190 H372       87.0417   63.5413   37.2358 T4         2 LUT      0.089537
    191 H371       87.4756   62.4218   36.1376 T4         2 LUT      0.089537
    192 H363       89.3940   65.4670   36.6109 T4         2 LUT      0.089537
    193 H362       88.5680   66.6133   35.4663 T4         2 LUT      0.089537
    194 H361       87.8114   66.1532   36.8963 T4         2 LUT      0.089537
    195 H222       89.7022   64.0614   34.4735 U2         2 LUT      0.127376
    196 H221       88.3341   63.2226   33.8014 U2         2 LUT      0.127376
    197 H203       72.7933   60.6994   41.1145 R7         2 LUT      0.087068
    198 H202       73.1199   62.0176   40.1173 R7         2 LUT      0.087068
    199 H201       74.4926   60.8980   40.6224 R7         2 LUT      0.087068
    200 H193       69.8194   59.5636   45.1875 R4         2 LUT      0.089716
    201 H192       68.4124   60.0113   44.3386 R4         2 LUT      0.089716
    202 H191       69.9676   59.8547   43.5175 R4         2 LUT      0.089716
    203 H183       65.6914   64.2157   47.2118 R1         2 LUT      0.094572
    204 H182       67.5056   64.5817   47.3707 R1         2 LUT      0.094572
    205 H181       66.8815   63.4798   46.2115 R1         2 LUT      0.094572
    206 H173       68.9067   62.7837   50.6787 T4         2 LUT      0.093752
    207 H172       69.2136   61.3611   51.5078 T4         2 LUT      0.093752
    208 H171       70.0784   61.7786   50.1126 T4         2 LUT      0.093752
    209 H163       68.5297   58.9304   50.2822 T4         2 LUT      0.093752
    210 H162       68.0442   58.9565   48.6635 T4         2 LUT      0.093752
    211 H161       69.6896   59.4538   49.1172 T4         2 LUT      0.093752
    212 HO3        66.2849   62.2943   52.5381 Q1         2 LUT      0.300121
    213 H8         69.6007   62.9682   46.4603 U7         2 LUT      0.080784
    214 H7         68.3488   60.2611   46.8593 U6         2 LUT      0.042190
    215 H42        65.1360   63.4647   49.2329 U5         2 LUT      0.145166
    216 H41        66.3587   64.1871   49.9007 U5         2 LUT      0.145166
    217 H35        77.1078   64.5327   42.1899 T3         2 LUT      0.077919
    218 H34        78.1852   63.1333   39.5732 T2         2 LUT      0.073626
    219 H32        80.1006   63.5779   38.5662 T1         2 LUT      0.092510
    220 H31        82.0168   65.5496   39.8303 U9         2 LUT      0.070048
    221 H30        82.2140   63.8237   37.2217 U8         2 LUT      0.085442
    222 H3         64.8642   61.9068   50.8363 U3         2 LUT     -0.031596
    223 H28        83.9934   64.0820   35.7792 U7         2 LUT      0.084728
    224 H27        85.8983   66.4760   36.1724 U6         2 LUT      0.087291
    225 H26        85.9816   63.9285   34.4903 Q6         2 LUT      0.075325
    226 H24        87.4375   66.4513   31.7722 Q5         2 LUT      0.094482
    227 H23        89.6057   65.8117   33.3215 U3         2 LUT     -0.024869
    228 H22        66.1372   60.3756   49.4734 U2         2 LUT      0.127376
    229 H21        66.6679   60.2049   51.1554 U2         2 LUT      0.127376
    230 H15        76.1436   62.3811   40.3440 T3         2 LUT      0.093200
    231 H14        75.1304   63.7085   42.9459 T2         2 LUT      0.068865
    232 H12        73.0956   63.2374   43.8983 T1         2 LUT      0.095507
    233 H11        71.1248   61.4821   42.3998 U9         2 LUT      0.068930
    234 H10        71.0812   63.1210   44.9954 U8         2 LUT      0.083911
    235 H1         88.9317   64.1001   31.3158 Q1         2 LUT      0.297311
@<TRIPOS>BOND
    1     6     1 1
    2     7     2 1
    3     8     3 1
    4     9     4 1
    5    11     4 1
    6    12     6 1
    7    13     9 1
    8    16     9 1
    9    25     5 1
   10    25    16 1
   11    26    10 1
   12    26    17 1
   13    27    18 1
   14    28    14 1
   15    28    19 1
   16    29    12 1
   17    30    13 1
   18    31    24 1
   19    32     1 1
   20    32    25 1
   21    33    21 1
   22    33    26 1
   23    34    22 1
   24    34    27 1
   25    35    23 1
   26    35    28 1
   27    36    12 1
   28    36    24 1
   29    37    13 1
   30    37    15 1
   31    38    31 1
   32    39    20 1
   33    39    32 1
   34    40     2 1
   35    40    33 1
   36    41     3 1
   37    41    34 1
   38    42     4 1
   39    42    35 1
   40    43    38 1
   41    44     5 1
   42    44    17 1
   43    44    39 1
   44    45    10 1
   45    45    18 1
   46    45    40 1
   47    46    19 1
   48    46    41 1
   49    47    14 1
   50    47    16 1
   51    47    42 1
   52    48    38 1
   53    49    48 1
   54    50    49 1
   55    51    50 1
   56    52    51 1
   57    53    51 1
   58    54    53 1
   59    55    54 1
   60    56    55 1
   61    57    56 1
   62    58    56 1
   63    59    58 1
   64    60    59 1
   65    61    60 1
   66    62    61 1
   67    63    61 1
   68    64    27 1
   69    64    46 1
   70    65     5 1
   71    65    10 1
   72    65    64 1
   73    65    14 1
   74    66    23 1
   75    67    23 1
   76    68    23 1
   77    69    22 1
   78    70    22 1
   79    71    22 1
   80    72    21 1
   81    73    21 1
   82    74    21 1
   83    75    20 1
   84    76    20 1
   85    77    20 1
   86    78    15 1
   87    79    15 1
   88    80    15 1
   89    81     8 1
   90    82     8 1
   91    83     8 1
   92    84     7 1
   93    85     7 1
   94    86     6 1
   95    87     6 1
   96    88     3 1
   97    89     3 1
   98    90     1 1
   99    91     1 1
  100    92    63 1
  101    93    63 1
  102    94    63 1
  103    95    62 1
  104    96    62 1
  105    97    62 1
  106    98    60 1
  107    99    60 1
  108   100    59 1
  109   101    59 1
  110   102    58 1
  111   103    58 1
  112   104    57 1
  113   105    57 1
  114   106    57 1
  115   107    55 1
  116   108    55 1
  117   109    54 1
  118   110    54 1
  119   111    53 1
  120   112    53 1
  121   113    19 1
  122   114    18 1
  123   115    17 1
  124   116     9 1
  125   117     2 1
  126   118    52 1
  127   119    52 1
  128   120    52 1
  129   121    51 1
  130   122    50 1
  131   123    50 1
  132   124    49 1
  133   125    49 1
  134   126    48 1
  135   127    48 1
  136   128    43 1
  137   129    43 1
  138   130    43 1
  139   131    39 1
  140   132    32 1
  141   133    31 1
  142   134    61 1
  143   135    56 1
  144   136    24 1
  145   137    24 1
  146   139   138 1
  147   140   139 1
  148   141   140 1
  149   142   140 1
  150   143   142 1
  151   144   138 1
  152   144   143 1
  153   145   144 1
  154   146   145 1
  155   147   146 1
  156   148   147 1
  157   149   148 1
  158   150   149 1
  159   151   150 1
  160   152   151 1
  161   153   152 1
  162   154   138 1
  163   155   138 1
  164   156   143 1
  165   157   147 1
  166   158   151 1
  167   160   159 1
  168   161   160 1
  169   162   161 1
  170   163   161 1
  171   164   163 1
  172   165   159 1
  173   165   164 1
  174   166   165 1
  175   167   166 1
  176   168   167 1
  177   169   168 1
  178   170   169 1
  179   171   170 1
  180   172   171 1
  181   173   172 1
  182   174   153 1
  183   174   173 1
  184   175   159 1
  185   176   159 1
  186   177   164 1
  187   178   168 1
  188   179   172 1
  189   180   179 1
  190   181   179 1
  191   182   179 1
  192   183   178 1
  193   184   178 1
  194   185   178 1
  195   186   177 1
  196   187   177 1
  197   188   177 1
  198   189   176 1
  199   190   176 1
  200   191   176 1
  201   192   175 1
  202   193   175 1
  203   194   175 1
  204   195   160 1
  205   196   160 1
  206   197   158 1
  207   198   158 1
  208   199   158 1
  209   200   157 1
  210   201   157 1
  211   202   157 1
  212   203   156 1
  213   204   156 1
  214   205   156 1
  215   206   155 1
  216   207   155 1
  217   208   155 1
  218   209   154 1
  219   210   154 1
  220   211   154 1
  221   212   141 1
  222   213   146 1
  223   214   145 1
  224   215   142 1
  225   216   142 1
  226   217   174 1
  227   218   173 1
  228   219   171 1
  229   220   170 1
  230   221   169 1
  231   222   140 1
  232   223   167 1
  233   224   166 1
  234   225   165 1
  235   226   163 1
  236   227   161 1
  237   228   139 1
  238   229   139 1
  239   230   153 1
  240   231   152 1
  241   232   150 1
  242   233   149 1
  243   234   148 1
  244   235   162 1
  245   65    153 1
  246   65    174 1
@<TRIPOS>SUBSTRUCTURE
      1 CLA               1 ****               0 ****  **** 
      2 LUT             138 ****               0 ****  **** 
