@<TRIPOS>MOLECULE
Cpptraj generated mol2 file.
  235   246     2     0     0
SMALL
USER_CHARGES


@<TRIPOS>ATOM
      1 CAA        77.6046   57.7962   34.9583 a2         1 CLA     -0.055900
      2 CAB        77.1118   61.9713   43.8971 c8         1 CLA     -0.148500
      3 CAC        70.3136   57.7615   43.1605 a2         1 CLA     -0.012600
      4 CAD        73.3250   55.2348   36.0606 ck         1 CLA      0.398800
      5 NA         76.4596   58.4305   38.1971 ns         1 CLA     -0.225500
      6 CBA        78.9250   57.4800   34.2192 a2         1 CLA     -0.135000
      7 CBB        78.2707   62.2563   44.5877 c0         1 CLA     -0.395200
      8 CBC        70.5000   56.2743   43.7187 a3         1 CLA     -0.037700
      9 CBD        74.8885   55.5844   35.8393 a1         1 CLA     -0.053900
     10 NB         76.2616   59.8237   40.9284 nm         1 CLA     -0.295700
     11 OBD        72.6742   54.4360   35.3591 o2         1 CLA     -0.494600
     12 CGA        79.2572   56.0928   33.8568 c4         1 CLA      0.827000
     13 CGD        75.7574   54.3070   35.9464 c4         1 CLA      0.655300
     14 ND         73.6014   57.4433   38.7555 nm         1 CLA     -0.291600
     15 CED        75.6110   51.9359   36.0777 a3         1 CLA      0.005400
     16 CHA        75.2009   56.7299   36.9863 cs         1 CLA     -0.123800
     17 CHB        78.1709   59.6479   39.4655 aa         1 CLA     -0.291900
     18 CHC        74.7828   60.1797   42.8443 aa         1 CLA     -0.090400
     19 CHD        71.7244   57.2878   40.3558 aa         1 CLA     -0.052000
     20 CMA        79.8928   57.5415   38.0175 a3         1 CLA     -0.230700
     21 CMB        79.3396   61.7940   41.4060 a3         1 CLA     -0.180800
     22 CMC        72.4316   59.4836   44.8201 a3         1 CLA     -0.134000
     23 CMD        70.5712   55.3865   38.0704 a3         1 CLA     -0.141100
     24 C1         80.1951   54.0700   34.5221 a2         1 CLA      0.023000
     25 C1A        76.3556   57.4968   37.1827 ac         1 CLA     -0.015100
     26 C1B        77.5244   60.2071   40.6044 cr         1 CLA      0.054700
     27 C1C        73.6173   59.5203   42.4833 cn         1 CLA     -0.005600
     28 C1D        72.3396   56.9569   39.1352 ap         1 CLA     -0.047300
     29 O1A        79.2733   55.6934   32.6972 o2         1 CLA     -0.610800
     30 O1D        76.9722   54.3021   35.6391 o2         1 CLA     -0.558200
     31 C2         80.2048   53.1898   35.6689 c8         1 CLA     -0.325100
     32 C2A        77.6559   57.3917   36.3985 a1         1 CLA      0.098600
     33 C2B        78.0520   61.0619   41.6147 cb         1 CLA      0.088500
     34 C2C        72.5315   59.0869   43.4023 cb         1 CLA      0.053700
     35 C2D        71.8842   56.0359   38.1274 cb         1 CLA      0.058900
     36 O2A        79.7314   55.3946   34.9649 o1         1 CLA     -0.437200
     37 O2D        75.0725   53.2482   36.3750 o1         1 CLA     -0.357600
     38 C3         81.2695   52.8950   36.4528 c5         1 CLA      0.031200
     39 C3A        78.6408   58.2641   37.3184 a1         1 CLA      0.166800
     40 C3B        77.0847   61.1317   42.6146 cb         1 CLA      0.035000
     41 C3C        71.5671   58.3485   42.6241 cb         1 CLA     -0.089900
     42 C3D        72.9906   55.9254   37.2342 cb         1 CLA     -0.035900
     43 C4         82.3743   51.9646   36.0094 a3         1 CLA     -0.053300
     44 C4A        77.7057   58.9267   38.3550 ac         1 CLA      0.001800
     45 C4B        75.9910   60.3615   42.1502 cn         1 CLA     -0.020900
     46 C4C        72.2049   58.1600   41.3991 cr         1 CLA     -0.044400
     47 C4D        73.9960   56.8444   37.6466 c6         1 CLA     -0.046000
     48 C5         81.4448   53.5002   37.7926 a2         1 CLA     -0.070400
     49 C6         82.2813   54.7476   37.8528 a2         1 CLA      0.043900
     50 C7         82.4304   55.3769   39.1878 a2         1 CLA     -0.150000
     51 C8         83.1647   56.7236   39.1920 a1         1 CLA      0.064200
     52 C9         84.6589   56.7094   38.5889 a3         1 CLA     -0.259300
     53 C10        83.2140   57.3969   40.6107 a2         1 CLA     -0.071900
     54 C11        81.9827   57.5680   41.3513 a2         1 CLA      0.014500
     55 C12        82.1690   58.3149   42.7164 a2         1 CLA     -0.112100
     56 C13        83.0992   57.5122   43.7304 a1         1 CLA      0.089200
     57 C14        82.2982   56.2687   44.3541 a3         1 CLA     -0.239100
     58 C15        83.6593   58.4716   44.7894 a2         1 CLA     -0.102200
     59 C16        82.6863   59.2379   45.6506 a2         1 CLA      0.023900
     60 C17        83.4201   60.3456   46.5196 a2         1 CLA     -0.105700
     61 C18        82.6134   60.8689   47.8172 a1         1 CLA      0.206800
     62 C19        83.5151   61.8108   48.6748 a3         1 CLA     -0.280100
     63 C20        81.2720   61.5570   47.4142 a3         1 CLA     -0.280100
     64 NC         73.3716   58.8931   41.2962 nx         1 CLA     -0.309200
     65 MG         74.7827   58.7530   39.6865 mg         1 CLA      0.895000
     66 HMD3       70.3226   55.0586   39.0718 dc         1 CLA      0.064300
     67 HMD2       69.7976   56.0707   37.8243 dc         1 CLA      0.064300
     68 HMD1       70.5645   54.5206   37.4406 dc         1 CLA      0.064300
     69 HMC3       71.4012   59.6775   45.1329 dc         1 CLA      0.052100
     70 HMC2       72.9405   58.7959   45.4654 dc         1 CLA      0.052100
     71 HMC1       72.9097   60.4911   44.9070 dc         1 CLA      0.052100
     72 HMB3       79.4825   62.5658   42.2007 dc         1 CLA      0.063600
     73 HMB2       80.1532   61.0925   41.5173 dc         1 CLA      0.063600
     74 HMB1       79.4252   62.1591   40.3916 dc         1 CLA      0.063600
     75 HMA3       80.5603   57.2318   37.2159 dc         1 CLA      0.058300
     76 HMA2       80.3454   58.2303   38.6873 dc         1 CLA      0.058300
     77 HMA1       79.5326   56.6509   38.4880 dc         1 CLA      0.058300
     78 HED3       76.4466   51.6772   36.7092 dc         1 CLA      0.079300
     79 HED2       74.9167   51.1630   36.1615 dc         1 CLA      0.079300
     80 HED1       76.0169   51.8775   35.0695 dc         1 CLA      0.079300
     81 HBC3       71.0061   55.5574   43.0709 dc         1 CLA      0.016300
     82 HBC2       70.9970   56.2185   44.6610 dc         1 CLA      0.016300
     83 HBC1       69.5138   55.8518   43.8555 dc         1 CLA      0.016300
     84 HBB2       78.2178   62.7513   45.5940 da         1 CLA      0.183000
     85 HBB1       79.2273   61.8018   44.3025 da         1 CLA      0.183000
     86 HBA2       78.7990   58.1162   33.3129 dc         1 CLA      0.029400
     87 HBA1       79.7822   57.8443   34.7589 dc         1 CLA      0.029400
     88 HAC2       70.0179   58.4076   44.0093 dc         1 CLA      0.029300
     89 HAC1       69.5556   57.8429   42.4548 dc         1 CLA      0.029300
     90 HAA2       76.8022   57.2421   34.4538 dc         1 CLA      0.028700
     91 HAA1       77.4574   58.8428   34.7847 dc         1 CLA      0.028700
     92 H203       80.7966   61.9416   48.3480 dc         1 CLA      0.065600
     93 H202       81.5065   62.4602   46.7212 dc         1 CLA      0.065600
     94 H201       80.6406   60.8128   47.0141 dc         1 CLA      0.065600
     95 H193       82.9553   62.3134   49.4499 dc         1 CLA      0.065600
     96 H192       84.2741   61.2206   49.1496 dc         1 CLA      0.065600
     97 H191       83.9860   62.6767   48.1676 dc         1 CLA      0.065600
     98 H172       84.2443   59.8511   46.9810 dc         1 CLA      0.027600
     99 H171       83.8123   60.9906   45.8167 dc         1 CLA      0.027600
    100 H162       81.7845   59.6462   45.2487 dc         1 CLA      0.002900
    101 H161       82.1962   58.5202   46.3448 dc         1 CLA      0.002900
    102 H152       84.3156   57.8897   45.5333 dc         1 CLA      0.029100
    103 H151       84.3445   59.2427   44.3738 dc         1 CLA      0.029100
    104 H143       83.0049   55.7519   44.9520 dc         1 CLA      0.063600
    105 H142       81.4081   56.6595   44.8738 dc         1 CLA      0.063600
    106 H141       81.8574   55.5771   43.5983 dc         1 CLA      0.063600
    107 H122       82.5790   59.2822   42.4555 dc         1 CLA      0.032500
    108 H121       81.2023   58.4638   43.2033 dc         1 CLA      0.032500
    109 H112       81.2844   58.2499   40.9217 dc         1 CLA      0.006600
    110 H111       81.5683   56.6071   41.5507 dc         1 CLA      0.006600
    111 H102       83.7700   56.6427   41.2866 dc         1 CLA      0.024100
    112 H101       83.7275   58.3622   40.4245 dc         1 CLA      0.024100
    113 HHD        70.8281   56.6938   40.5804 da         1 CLA      0.174300
    114 HHC        74.9071   60.5062   43.8649 da         1 CLA      0.136800
    115 HHB        79.2408   59.8609   39.4934 da         1 CLA      0.138300
    116 HBD        75.0744   56.0731   34.8494 dc         1 CLA      0.107700
    117 HAB        76.1784   62.3404   44.3124 da         1 CLA      0.155200
    118 H93        85.2425   55.9922   39.2155 dc         1 CLA      0.069500
    119 H92        84.6500   56.3600   37.5378 dc         1 CLA      0.069500
    120 H91        85.1616   57.6786   38.4816 dc         1 CLA      0.069500
    121 H8         82.6183   57.3649   38.4907 dc         1 CLA      0.029300
    122 H72        81.4251   55.5391   39.5116 dc         1 CLA      0.044400
    123 H71        82.9208   54.6462   39.7953 dc         1 CLA      0.044400
    124 H62        83.2977   54.6240   37.5126 dc         1 CLA      0.015600
    125 H61        81.7615   55.4896   37.3263 dc         1 CLA      0.015600
    126 H52        80.4525   53.7645   38.1992 dc         1 CLA      0.033200
    127 H51        81.9439   52.7758   38.4817 dc         1 CLA      0.033200
    128 H43        82.0716   51.3979   35.0322 dc         1 CLA      0.037000
    129 H42        83.3093   52.5545   35.8996 dc         1 CLA      0.037000
    130 H41        82.5409   51.2223   36.7914 dc         1 CLA      0.037000
    131 H3A        79.1289   59.0887   36.7772 dc         1 CLA      0.041100
    132 H2A        78.0173   56.3543   36.4367 dc         1 CLA      0.083100
    133 H2         79.2690   52.7212   35.9921 da         1 CLA      0.180900
    134 H18        82.2123   60.0035   48.3732 dc         1 CLA     -0.003900
    135 H13        84.0651   57.2481   43.2758 dc         1 CLA      0.019700
    136 H12        79.5489   53.6124   33.7976 dc         1 CLA      0.120400
    137 H11        81.2167   54.1320   34.1971 dc         1 CLA      0.120400
    138 C1         66.9721   61.3858   51.2172 Z1         2 LUT      0.509236
    139 C2         65.4410   61.2470   51.6889 Z2         2 LUT     -0.434695
    140 C3         64.6558   62.6048   51.8493 Z3         2 LUT      0.437453
    141 O3         64.6923   63.0849   53.1585 S1         2 LUT     -0.547129
    142 C4         65.1584   63.6847   50.9151 Z4         2 LUT     -0.468603
    143 C5         66.0274   63.2686   49.7042 Z5         2 LUT      0.279246
    144 C6         66.9372   62.2154   49.8680 Z6         2 LUT     -0.305473
    145 C7         67.6529   61.5271   48.7510 Z7         2 LUT      0.069402
    146 C8         68.3922   62.1933   47.8237 Z8         2 LUT     -0.191631
    147 C9         68.8260   61.6619   46.6045 Z9         2 LUT      0.196698
    148 C10        69.8478   62.4211   46.0858 Y1         2 LUT     -0.208611
    149 C11        70.5083   62.2581   44.8442 Y2         2 LUT      0.030784
    150 C12        71.5780   63.0559   44.5247 Y3         2 LUT     -0.220316
    151 C13        72.3511   62.9780   43.3006 Y4         2 LUT      0.215937
    152 C14        73.5041   63.6742   43.2072 Y5         2 LUT     -0.185793
    153 C15        74.4531   63.7439   42.1173 Y6         2 LUT     -0.057835
    154 C16        67.7063   59.9958   51.1394 Y7         2 LUT     -0.405615
    155 C17        67.6355   62.1162   52.4010 Y7         2 LUT     -0.405615
    156 C18        65.6642   63.8829   48.3042 Y9         2 LUT     -0.369639
    157 C19        68.3467   60.3407   46.0688 W1         2 LUT     -0.333362
    158 C20        71.5750   62.5533   42.1205 W2         2 LUT     -0.323439
    159 C21        85.8065   65.3023   35.6330 Z1         2 LUT      0.406104
    160 C22        86.5171   64.7457   34.3650 Z2         2 LUT     -0.404965
    161 C23        86.6700   65.7933   33.2960 Z3         2 LUT      0.391255
    162 O23        87.2135   65.1476   32.1781 S1         2 LUT     -0.528210
    163 C24        85.2716   66.3693   33.0759 W6         2 LUT     -0.258361
    164 C25        84.2990   66.5233   34.0066 Z5         2 LUT      0.133546
    165 C26        84.3248   65.7879   35.3825 W8         2 LUT     -0.147008
    166 C27        83.5295   66.5035   36.4278 Z7         2 LUT      0.023843
    167 C28        82.4363   66.0865   37.0272 Z8         2 LUT     -0.216987
    168 C29        81.8043   66.5884   38.2441 Z9         2 LUT      0.206524
    169 C30        80.6690   65.9395   38.6826 Y1         2 LUT     -0.215556
    170 C31        79.8167   66.1011   39.8142 Y2         2 LUT      0.025142
    171 C32        78.6526   65.4246   40.0788 Y3         2 LUT     -0.212209
    172 C33        77.7644   65.5413   41.2408 Y4         2 LUT      0.240937
    173 C34        76.6872   64.6864   41.2667 Y5         2 LUT     -0.218862
    174 C35        75.5761   64.5153   42.2314 Y6         2 LUT     -0.023547
    175 C36        86.5921   66.4978   36.2519 Y7         2 LUT     -0.393485
    176 C37        85.8820   64.1412   36.6383 Y7         2 LUT     -0.393485
    177 C38        82.9523   67.0646   33.6038 Y9         2 LUT     -0.387526
    178 C39        82.4146   67.7480   38.8855 W1         2 LUT     -0.322618
    179 C40        78.2340   66.2777   42.4640 W2         2 LUT     -0.358472
    180 H403       77.5404   67.0375   42.7098 R7         2 LUT      0.097720
    181 H402       78.1806   65.7560   43.4099 R7         2 LUT      0.097720
    182 H401       79.1583   66.7840   42.4626 R7         2 LUT      0.097720
    183 H393       82.0344   68.0061   39.9008 R4         2 LUT      0.082505
    184 H392       83.5322   67.5518   38.9737 R4         2 LUT      0.082505
    185 H391       82.2904   68.6594   38.3797 R4         2 LUT      0.082505
    186 H383       82.3081   67.2776   34.4577 R1         2 LUT      0.104030
    187 H382       83.1018   68.0953   33.1234 R1         2 LUT      0.104030
    188 H381       82.5073   66.3617   32.8946 R1         2 LUT      0.104030
    189 H373       85.4616   64.5085   37.6306 T4         2 LUT      0.089537
    190 H372       85.4115   63.1939   36.3730 T4         2 LUT      0.089537
    191 H371       86.9398   63.8386   36.7794 T4         2 LUT      0.089537
    192 H363       86.6955   67.4485   35.6157 T4         2 LUT      0.089537
    193 H362       86.2212   66.8070   37.1976 T4         2 LUT      0.089537
    194 H361       87.6309   66.2041   36.4861 T4         2 LUT      0.089537
    195 H222       87.5547   64.4875   34.5962 U2         2 LUT      0.127376
    196 H221       85.9726   63.7974   34.0994 U2         2 LUT      0.127376
    197 H203       71.9816   62.8395   41.2013 R7         2 LUT      0.087068
    198 H202       71.4281   61.4322   42.1858 R7         2 LUT      0.087068
    199 H201       70.5983   62.8673   42.1867 R7         2 LUT      0.087068
    200 H193       68.7502   59.4897   46.6227 R4         2 LUT      0.089716
    201 H192       67.2409   60.3440   46.2706 R4         2 LUT      0.089716
    202 H191       68.4749   60.1513   45.0033 R4         2 LUT      0.089716
    203 H183       64.8250   64.6066   48.3807 R1         2 LUT      0.094572
    204 H182       66.4184   64.5747   48.0443 R1         2 LUT      0.094572
    205 H181       65.4642   63.2042   47.5660 R1         2 LUT      0.094572
    206 H173       67.4583   63.1811   52.4742 T4         2 LUT      0.093752
    207 H172       67.5061   61.6401   53.3751 T4         2 LUT      0.093752
    208 H171       68.7166   62.2081   52.1902 T4         2 LUT      0.093752
    209 H163       67.7689   59.4710   52.0553 T4         2 LUT      0.093752
    210 H162       67.1671   59.2888   50.5001 T4         2 LUT      0.093752
    211 H161       68.7774   60.0398   50.7354 T4         2 LUT      0.093752
    212 HO3        64.2793   62.5098   53.8612 Q1         2 LUT      0.300121
    213 H8         68.5714   63.1852   48.0748 U7         2 LUT      0.080784
    214 H7         67.3609   60.5124   48.5013 U6         2 LUT      0.042190
    215 H42        64.2527   64.1212   50.5596 U5         2 LUT      0.145166
    216 H41        65.4931   64.5523   51.4274 U5         2 LUT      0.145166
    217 H35        75.7597   65.1993   43.0258 T3         2 LUT      0.077919
    218 H34        76.6510   64.0656   40.4002 T2         2 LUT      0.073626
    219 H32        78.4325   64.6893   39.2998 T1         2 LUT      0.092510
    220 H31        80.1493   66.8492   40.4572 U9         2 LUT      0.070048
    221 H30        80.3285   65.0411   38.0886 U8         2 LUT      0.085442
    222 H3         63.5870   62.4777   51.6243 U3         2 LUT     -0.031596
    223 H28        82.0925   65.1305   36.7660 U7         2 LUT      0.084728
    224 H27        84.0159   67.4104   36.7774 U6         2 LUT      0.087291
    225 H26        83.7479   64.9272   35.0214 Q6         2 LUT      0.075325
    226 H24        85.0165   66.9144   32.1309 Q5         2 LUT      0.094482
    227 H23        87.2688   66.4461   33.8991 U3         2 LUT     -0.024869
    228 H22        64.9518   60.6755   50.8937 U2         2 LUT      0.127376
    229 H21        65.3158   60.6315   52.5920 U2         2 LUT      0.127376
    230 H15        74.3099   63.0819   41.2320 T3         2 LUT      0.093200
    231 H14        73.7425   64.1303   44.1682 T2         2 LUT      0.068865
    232 H12        71.8717   63.7399   45.2648 T1         2 LUT      0.095507
    233 H11        70.0197   61.6312   44.1610 U9         2 LUT      0.068930
    234 H10        70.0593   63.3348   46.6203 U8         2 LUT      0.083911
    235 H1         86.5905   64.6667   31.6856 Q1         2 LUT      0.297311
@<TRIPOS>BOND
    1     6     1 1
    2     7     2 1
    3     8     3 1
    4     9     4 1
    5    11     4 1
    6    12     6 1
    7    13     9 1
    8    16     9 1
    9    25     5 1
   10    25    16 1
   11    26    10 1
   12    26    17 1
   13    27    18 1
   14    28    14 1
   15    28    19 1
   16    29    12 1
   17    30    13 1
   18    31    24 1
   19    32     1 1
   20    32    25 1
   21    33    21 1
   22    33    26 1
   23    34    22 1
   24    34    27 1
   25    35    23 1
   26    35    28 1
   27    36    12 1
   28    36    24 1
   29    37    13 1
   30    37    15 1
   31    38    31 1
   32    39    20 1
   33    39    32 1
   34    40     2 1
   35    40    33 1
   36    41     3 1
   37    41    34 1
   38    42     4 1
   39    42    35 1
   40    43    38 1
   41    44     5 1
   42    44    17 1
   43    44    39 1
   44    45    10 1
   45    45    18 1
   46    45    40 1
   47    46    19 1
   48    46    41 1
   49    47    14 1
   50    47    16 1
   51    47    42 1
   52    48    38 1
   53    49    48 1
   54    50    49 1
   55    51    50 1
   56    52    51 1
   57    53    51 1
   58    54    53 1
   59    55    54 1
   60    56    55 1
   61    57    56 1
   62    58    56 1
   63    59    58 1
   64    60    59 1
   65    61    60 1
   66    62    61 1
   67    63    61 1
   68    64    27 1
   69    64    46 1
   70    65     5 1
   71    65    10 1
   72    65    64 1
   73    65    14 1
   74    66    23 1
   75    67    23 1
   76    68    23 1
   77    69    22 1
   78    70    22 1
   79    71    22 1
   80    72    21 1
   81    73    21 1
   82    74    21 1
   83    75    20 1
   84    76    20 1
   85    77    20 1
   86    78    15 1
   87    79    15 1
   88    80    15 1
   89    81     8 1
   90    82     8 1
   91    83     8 1
   92    84     7 1
   93    85     7 1
   94    86     6 1
   95    87     6 1
   96    88     3 1
   97    89     3 1
   98    90     1 1
   99    91     1 1
  100    92    63 1
  101    93    63 1
  102    94    63 1
  103    95    62 1
  104    96    62 1
  105    97    62 1
  106    98    60 1
  107    99    60 1
  108   100    59 1
  109   101    59 1
  110   102    58 1
  111   103    58 1
  112   104    57 1
  113   105    57 1
  114   106    57 1
  115   107    55 1
  116   108    55 1
  117   109    54 1
  118   110    54 1
  119   111    53 1
  120   112    53 1
  121   113    19 1
  122   114    18 1
  123   115    17 1
  124   116     9 1
  125   117     2 1
  126   118    52 1
  127   119    52 1
  128   120    52 1
  129   121    51 1
  130   122    50 1
  131   123    50 1
  132   124    49 1
  133   125    49 1
  134   126    48 1
  135   127    48 1
  136   128    43 1
  137   129    43 1
  138   130    43 1
  139   131    39 1
  140   132    32 1
  141   133    31 1
  142   134    61 1
  143   135    56 1
  144   136    24 1
  145   137    24 1
  146   139   138 1
  147   140   139 1
  148   141   140 1
  149   142   140 1
  150   143   142 1
  151   144   138 1
  152   144   143 1
  153   145   144 1
  154   146   145 1
  155   147   146 1
  156   148   147 1
  157   149   148 1
  158   150   149 1
  159   151   150 1
  160   152   151 1
  161   153   152 1
  162   154   138 1
  163   155   138 1
  164   156   143 1
  165   157   147 1
  166   158   151 1
  167   160   159 1
  168   161   160 1
  169   162   161 1
  170   163   161 1
  171   164   163 1
  172   165   159 1
  173   165   164 1
  174   166   165 1
  175   167   166 1
  176   168   167 1
  177   169   168 1
  178   170   169 1
  179   171   170 1
  180   172   171 1
  181   173   172 1
  182   174   153 1
  183   174   173 1
  184   175   159 1
  185   176   159 1
  186   177   164 1
  187   178   168 1
  188   179   172 1
  189   180   179 1
  190   181   179 1
  191   182   179 1
  192   183   178 1
  193   184   178 1
  194   185   178 1
  195   186   177 1
  196   187   177 1
  197   188   177 1
  198   189   176 1
  199   190   176 1
  200   191   176 1
  201   192   175 1
  202   193   175 1
  203   194   175 1
  204   195   160 1
  205   196   160 1
  206   197   158 1
  207   198   158 1
  208   199   158 1
  209   200   157 1
  210   201   157 1
  211   202   157 1
  212   203   156 1
  213   204   156 1
  214   205   156 1
  215   206   155 1
  216   207   155 1
  217   208   155 1
  218   209   154 1
  219   210   154 1
  220   211   154 1
  221   212   141 1
  222   213   146 1
  223   214   145 1
  224   215   142 1
  225   216   142 1
  226   217   174 1
  227   218   173 1
  228   219   171 1
  229   220   170 1
  230   221   169 1
  231   222   140 1
  232   223   167 1
  233   224   166 1
  234   225   165 1
  235   226   163 1
  236   227   161 1
  237   228   139 1
  238   229   139 1
  239   230   153 1
  240   231   152 1
  241   232   150 1
  242   233   149 1
  243   234   148 1
  244   235   162 1
  245   65    153 1
  246   65    174 1
@<TRIPOS>SUBSTRUCTURE
      1 CLA               1 ****               0 ****  **** 
      2 LUT             138 ****               0 ****  **** 
