@<TRIPOS>MOLECULE
Cpptraj generated mol2 file.
  235   246     2     0     0
SMALL
USER_CHARGES


@<TRIPOS>ATOM
      1 CAA        80.2541   58.3968   34.3524 a2         1 CLA     -0.055900
      2 CAB        79.8609   62.9132   42.8149 c8         1 CLA     -0.148500
      3 CAC        72.6311   58.8214   42.2245 a2         1 CLA     -0.012600
      4 CAD        75.6923   55.8607   35.3851 ck         1 CLA      0.398800
      5 NA         78.9056   58.7684   37.6058 ns         1 CLA     -0.225500
      6 CBA        81.4871   58.0709   33.5949 a2         1 CLA     -0.135000
      7 CBB        80.8134   63.8405   43.1032 c0         1 CLA     -0.395200
      8 CBC        72.7786   57.3684   42.7311 a3         1 CLA     -0.037700
      9 CBD        77.2040   56.3103   35.0799 a1         1 CLA     -0.053900
     10 NB         78.6365   60.7850   39.9997 nm         1 CLA     -0.295700
     11 OBD        75.0938   54.9606   34.8004 o2         1 CLA     -0.494600
     12 CGA        81.8537   56.6341   33.4263 c4         1 CLA      0.827000
     13 CGD        78.1100   55.0234   35.0780 c4         1 CLA      0.655300
     14 ND         75.9669   58.2380   37.9897 nm         1 CLA     -0.291600
     15 CED        78.3620   52.8673   36.1907 a3         1 CLA      0.005400
     16 CHA        77.5122   57.3899   36.1280 cs         1 CLA     -0.123800
     17 CHB        80.5566   60.2850   38.5150 aa         1 CLA     -0.291900
     18 CHC        77.2856   61.0635   41.9827 aa         1 CLA     -0.090400
     19 CHD        73.9668   58.5121   39.4157 aa         1 CLA     -0.052000
     20 CMA        82.0307   57.5884   37.6657 a3         1 CLA     -0.230700
     21 CMB        81.9167   62.3725   40.5003 a3         1 CLA     -0.180800
     22 CMC        74.9031   60.2330   44.0502 a3         1 CLA     -0.134000
     23 CMD        72.8175   56.2885   37.2875 a3         1 CLA     -0.141100
     24 C1         82.8329   54.7572   34.7212 a2         1 CLA      0.023000
     25 C1A        78.7663   57.9015   36.4974 ac         1 CLA     -0.015100
     26 C1B        79.9584   60.8934   39.6247 cr         1 CLA      0.054700
     27 C1C        76.1336   60.2996   41.7021 cn         1 CLA     -0.005600
     28 C1D        74.5910   57.9980   38.3192 ap         1 CLA     -0.047300
     29 O1A        81.6607   55.9099   32.4508 o2         1 CLA     -0.610800
     30 O1D        79.1258   54.8977   34.4326 o2         1 CLA     -0.558200
     31 C2         83.7806   54.5928   35.9165 c8         1 CLA     -0.325100
     32 C2A        80.1916   57.7886   35.8344 a1         1 CLA      0.098600
     33 C2B        80.5757   61.8522   40.4958 cb         1 CLA      0.088500
     34 C2C        74.9426   60.0195   42.5664 cb         1 CLA      0.053700
     35 C2D        74.1597   56.9930   37.3601 cb         1 CLA      0.058900
     36 O2A        82.5766   56.2202   34.5445 o1         1 CLA     -0.437200
     37 O2D        77.6976   54.1655   36.0839 o1         1 CLA     -0.357600
     38 C3         85.0623   54.3299   35.7679 c5         1 CLA      0.031200
     39 C3A        81.0868   58.5115   36.8082 a1         1 CLA      0.166800
     40 C3B        79.6495   62.0513   41.5715 cb         1 CLA      0.035000
     41 C3C        73.9917   59.4137   41.7931 cb         1 CLA     -0.089900
     42 C3D        75.2203   56.7550   36.4493 cb         1 CLA     -0.035900
     43 C4         85.5349   52.8864   35.4956 a3         1 CLA     -0.053300
     44 C4A        80.1384   59.2534   37.6340 ac         1 CLA      0.001800
     45 C4B        78.4818   61.2811   41.2502 cn         1 CLA     -0.020900
     46 C4C        74.5611   59.2741   40.5278 cr         1 CLA     -0.044400
     47 C4D        76.2937   57.5481   36.8785 c6         1 CLA     -0.046000
     48 C5         86.2014   55.3790   35.9142 a2         1 CLA     -0.070400
     49 C6         86.6471   55.7708   37.3223 a2         1 CLA      0.043900
     50 C7         87.1887   57.2090   37.3509 a2         1 CLA     -0.150000
     51 C8         88.1846   57.7863   38.4004 a1         1 CLA      0.064200
     52 C9         89.5273   57.0277   38.2653 a3         1 CLA     -0.259300
     53 C10        87.6475   57.6156   39.8097 a2         1 CLA     -0.071900
     54 C11        88.4481   58.2566   40.9450 a2         1 CLA      0.014500
     55 C12        88.2993   57.3909   42.2744 a2         1 CLA     -0.112100
     56 C13        88.6571   58.1263   43.6654 a1         1 CLA      0.089200
     57 C14        90.1247   58.2993   43.7671 a3         1 CLA     -0.239100
     58 C15        87.9872   57.3489   44.9326 a2         1 CLA     -0.102200
     59 C16        88.3006   57.9924   46.3032 a2         1 CLA      0.023900
     60 C17        88.2268   59.5081   46.4566 a2         1 CLA     -0.105700
     61 C18        86.8403   60.1033   46.2625 a1         1 CLA      0.206800
     62 C19        85.7640   59.5030   47.1759 a3         1 CLA     -0.280100
     63 C20        86.8195   61.6103   46.2555 a3         1 CLA     -0.280100
     64 NC         75.8534   59.7592   40.4696 nx         1 CLA     -0.309200
     65 MG         77.2960   59.4988   38.8895 mg         1 CLA      0.895000
     66 HMD3       72.0171   57.0380   37.4963 dc         1 CLA      0.064300
     67 HMD2       72.7213   56.0450   36.2453 dc         1 CLA      0.064300
     68 HMD1       72.8925   55.4891   37.9165 dc         1 CLA      0.064300
     69 HMC3       75.7395   60.7562   44.4332 dc         1 CLA      0.052100
     70 HMC2       74.0123   60.7730   44.3335 dc         1 CLA      0.052100
     71 HMC1       74.8755   59.2489   44.5041 dc         1 CLA      0.052100
     72 HMB3       82.4688   61.8899   39.6783 dc         1 CLA      0.063600
     73 HMB2       81.9516   63.4295   40.2419 dc         1 CLA      0.063600
     74 HMB1       82.3825   62.1799   41.4678 dc         1 CLA      0.063600
     75 HMA3       81.4941   56.7669   38.2133 dc         1 CLA      0.058300
     76 HMA2       82.7088   57.2225   36.9638 dc         1 CLA      0.058300
     77 HMA1       82.6493   58.2249   38.2784 dc         1 CLA      0.058300
     78 HED3       78.2406   52.3403   37.2038 dc         1 CLA      0.079300
     79 HED2       77.8636   52.3108   35.4106 dc         1 CLA      0.079300
     80 HED1       79.4436   52.9342   35.9589 dc         1 CLA      0.079300
     81 HBC3       73.0852   56.6665   41.9199 dc         1 CLA      0.016300
     82 HBC2       73.5674   57.1803   43.5637 dc         1 CLA      0.016300
     83 HBC1       71.8746   57.0451   43.1721 dc         1 CLA      0.016300
     84 HBB2       80.9237   64.2526   44.0819 da         1 CLA      0.183000
     85 HBB1       81.6025   64.1191   42.3982 da         1 CLA      0.183000
     86 HBA2       81.3014   58.4309   32.5762 dc         1 CLA      0.029400
     87 HBA1       82.3253   58.6836   33.9780 dc         1 CLA      0.029400
     88 HAC2       72.2731   59.3846   43.1293 dc         1 CLA      0.029300
     89 HAC1       71.9395   58.9183   41.3954 dc         1 CLA      0.029300
     90 HAA2       79.4551   58.1415   33.6460 dc         1 CLA      0.028700
     91 HAA1       80.2554   59.5050   34.3663 dc         1 CLA      0.028700
     92 H203       87.3810   62.0371   45.3662 dc         1 CLA      0.065600
     93 H202       85.8416   61.9960   46.0846 dc         1 CLA      0.065600
     94 H201       87.1789   62.0951   47.1955 dc         1 CLA      0.065600
     95 H193       85.7337   58.4592   46.9292 dc         1 CLA      0.065600
     96 H192       86.0599   59.5224   48.1951 dc         1 CLA      0.065600
     97 H191       84.7688   59.8793   46.9171 dc         1 CLA      0.065600
     98 H172       88.4706   59.8099   47.4023 dc         1 CLA      0.027600
     99 H171       88.8799   60.0411   45.7810 dc         1 CLA      0.027600
    100 H162       87.7719   57.4946   47.1503 dc         1 CLA      0.002900
    101 H161       89.2740   57.5521   46.5457 dc         1 CLA      0.002900
    102 H152       86.9460   57.2440   44.7289 dc         1 CLA      0.029100
    103 H151       88.3660   56.3159   45.0545 dc         1 CLA      0.029100
    104 H143       90.4517   59.0550   43.0721 dc         1 CLA      0.063600
    105 H142       90.5423   58.7827   44.6598 dc         1 CLA      0.063600
    106 H141       90.6242   57.3617   43.6421 dc         1 CLA      0.063600
    107 H122       87.2971   57.2171   42.3996 dc         1 CLA      0.032500
    108 H121       88.9110   56.5239   42.0835 dc         1 CLA      0.032500
    109 H112       89.5113   58.3419   40.7337 dc         1 CLA      0.006600
    110 H111       88.1260   59.3086   40.9972 dc         1 CLA      0.006600
    111 H102       86.7118   58.0060   39.9385 dc         1 CLA      0.024100
    112 H101       87.6006   56.5044   39.9677 dc         1 CLA      0.024100
    113 HHD        72.9656   58.1278   39.5193 da         1 CLA      0.174300
    114 HHC        77.2109   61.6502   42.9270 da         1 CLA      0.136800
    115 HHB        81.5755   60.6010   38.3759 da         1 CLA      0.138300
    116 HBD        77.2587   56.7194   34.1186 dc         1 CLA      0.107700
    117 HAB        79.2385   62.6835   43.6843 da         1 CLA      0.155200
    118 H93        90.2998   57.5150   38.8656 dc         1 CLA      0.069500
    119 H92        89.3787   56.0283   38.6053 dc         1 CLA      0.069500
    120 H91        89.7981   57.1251   37.1875 dc         1 CLA      0.069500
    121 H8         88.4213   58.7984   38.1796 dc         1 CLA      0.029300
    122 H72        87.6206   57.3930   36.4087 dc         1 CLA      0.044400
    123 H71        86.2154   57.7157   37.5557 dc         1 CLA      0.044400
    124 H62        85.8428   55.7062   38.0211 dc         1 CLA      0.015600
    125 H61        87.4839   55.0495   37.5120 dc         1 CLA      0.015600
    126 H52        87.2143   55.0577   35.4196 dc         1 CLA      0.033200
    127 H51        85.8358   56.2220   35.3132 dc         1 CLA      0.033200
    128 H43        84.7773   52.1152   35.6228 dc         1 CLA      0.037000
    129 H42        85.9885   52.6693   34.4980 dc         1 CLA      0.037000
    130 H41        86.3352   52.6219   36.1611 dc         1 CLA      0.037000
    131 H3A        81.7237   59.2574   36.1624 dc         1 CLA      0.041100
    132 H2A        80.4994   56.7548   35.8884 dc         1 CLA      0.083100
    133 H2         83.4097   54.3682   36.9505 da         1 CLA      0.180900
    134 H18        86.5904   59.8995   45.2031 dc         1 CLA     -0.003900
    135 H13        88.3549   59.1484   43.7119 dc         1 CLA      0.019700
    136 H12        81.8682   54.3971   34.9982 dc         1 CLA      0.120400
    137 H11        83.2637   54.2717   33.8319 dc         1 CLA      0.120400
    138 C1         69.5675   62.2003   49.2386 Z1         2 LUT      0.509236
    139 C2         68.3547   62.0656   50.1457 Z2         2 LUT     -0.434695
    140 C3         67.5494   63.3009   50.5252 Z3         2 LUT      0.437453
    141 O3         68.0429   63.9807   51.7056 S1         2 LUT     -0.547129
    142 C4         67.5446   64.2726   49.4037 Z4         2 LUT     -0.468603
    143 C5         68.1957   63.9607   48.1196 Z5         2 LUT      0.279246
    144 C6         69.2462   63.1010   48.0584 Z6         2 LUT     -0.305473
    145 C7         69.8045   62.6893   46.7316 Z7         2 LUT      0.069402
    146 C8         70.8983   63.1790   46.1668 Z8         2 LUT     -0.191631
    147 C9         71.3568   63.0611   44.7518 Z9         2 LUT      0.196698
    148 C10        72.4397   63.8126   44.3536 Y1         2 LUT     -0.208611
    149 C11        73.1494   63.7506   43.0573 Y2         2 LUT      0.030784
    150 C12        74.3023   64.4783   42.8181 Y3         2 LUT     -0.220316
    151 C13        75.2161   64.3644   41.6722 Y4         2 LUT      0.215937
    152 C14        76.4250   64.9973   41.6794 Y5         2 LUT     -0.185793
    153 C15        77.5940   64.8847   40.8334 Y6         2 LUT     -0.057835
    154 C16        70.2009   60.8415   48.9569 Y7         2 LUT     -0.405615
    155 C17        70.5747   62.9642   50.1145 Y7         2 LUT     -0.405615
    156 C18        67.7004   64.8748   47.0136 Y9         2 LUT     -0.369639
    157 C19        70.8806   61.9151   43.9014 W1         2 LUT     -0.333362
    158 C20        74.7030   63.5065   40.5115 W2         2 LUT     -0.323439
    159 C21        88.5594   65.8464   34.8809 Z1         2 LUT      0.406104
    160 C22        89.4587   65.0832   33.8403 Z2         2 LUT     -0.404965
    161 C23        89.7164   65.8089   32.5488 Z3         2 LUT      0.391255
    162 O23        90.4728   64.8992   31.6613 S1         2 LUT     -0.528210
    163 C24        88.4558   66.4861   32.0509 W6         2 LUT     -0.258361
    164 C25        87.3225   66.7914   32.7835 Z5         2 LUT      0.133546
    165 C26        87.2139   66.2503   34.2175 W8         2 LUT     -0.147008
    166 C27        86.3600   67.1558   35.0517 Z7         2 LUT      0.023843
    167 C28        85.3523   66.6833   35.7969 Z8         2 LUT     -0.216987
    168 C29        84.7454   67.2108   36.9689 Z9         2 LUT      0.206524
    169 C30        83.6843   66.5558   37.5224 Y1         2 LUT     -0.215556
    170 C31        82.9304   66.7816   38.6988 Y2         2 LUT      0.025142
    171 C32        81.8687   66.0814   39.0452 Y3         2 LUT     -0.212209
    172 C33        81.0364   66.1583   40.1283 Y4         2 LUT      0.240937
    173 C34        79.8152   65.4944   40.0935 Y5         2 LUT     -0.218862
    174 C35        78.8093   65.5795   41.0549 Y6         2 LUT     -0.023547
    175 C36        89.3625   67.0650   35.1629 Y7         2 LUT     -0.393485
    176 C37        88.6247   64.9324   36.1258 Y7         2 LUT     -0.393485
    177 C38        86.0821   67.4402   32.2411 Y9         2 LUT     -0.387526
    178 C39        85.4255   68.4262   37.5553 W1         2 LUT     -0.322618
    179 C40        81.4086   66.9854   41.3171 W2         2 LUT     -0.358472
    180 H403       82.4259   67.2864   41.5176 R7         2 LUT      0.097720
    181 H402       80.9016   67.9059   41.4001 R7         2 LUT      0.097720
    182 H401       81.0192   66.4964   42.1742 R7         2 LUT      0.097720
    183 H393       86.3853   68.1657   37.9513 R4         2 LUT      0.082505
    184 H392       85.5646   69.2568   36.7275 R4         2 LUT      0.082505
    185 H391       84.8184   68.8433   38.3689 R4         2 LUT      0.082505
    186 H383       86.2487   67.6362   31.1539 R1         2 LUT      0.104030
    187 H382       85.2422   66.7222   32.3254 R1         2 LUT      0.104030
    188 H381       85.9152   68.3724   32.8431 R1         2 LUT      0.104030
    189 H373       88.2678   65.3757   37.1015 T4         2 LUT      0.089537
    190 H372       88.0756   64.0003   35.9784 T4         2 LUT      0.089537
    191 H371       89.6228   64.6064   36.3640 T4         2 LUT      0.089537
    192 H363       88.9402   67.7693   35.8764 T4         2 LUT      0.089537
    193 H362       90.2730   66.6828   35.5269 T4         2 LUT      0.089537
    194 H361       89.5951   67.6941   34.2586 T4         2 LUT      0.089537
    195 H222       90.4276   64.7754   34.2251 U2         2 LUT      0.127376
    196 H221       89.0006   64.0723   33.6255 U2         2 LUT      0.127376
    197 H203       75.3761   63.3910   39.6181 R7         2 LUT      0.087068
    198 H202       74.4403   62.4007   40.7021 R7         2 LUT      0.087068
    199 H201       73.8182   63.9859   40.0502 R7         2 LUT      0.087068
    200 H193       70.5485   62.1246   42.9040 R4         2 LUT      0.089716
    201 H192       71.7137   61.2051   43.6198 R4         2 LUT      0.089716
    202 H191       70.1081   61.4436   44.4758 R4         2 LUT      0.089716
    203 H183       66.6340   65.0267   47.0142 R1         2 LUT      0.094572
    204 H182       68.1387   65.8974   46.9957 R1         2 LUT      0.094572
    205 H181       67.9092   64.4973   46.0127 R1         2 LUT      0.094572
    206 H173       70.7846   62.4820   51.1066 T4         2 LUT      0.093752
    207 H172       71.5801   62.9493   49.7035 T4         2 LUT      0.093752
    208 H171       70.2954   64.0162   50.2842 T4         2 LUT      0.093752
    209 H163       71.1684   60.9479   48.4278 T4         2 LUT      0.093752
    210 H162       70.2793   60.2996   49.9208 T4         2 LUT      0.093752
    211 H161       69.6693   60.2499   48.1867 T4         2 LUT      0.093752
    212 HO3        68.1720   63.3814   52.4591 Q1         2 LUT      0.300121
    213 H8         71.3120   64.0167   46.8071 U7         2 LUT      0.080784
    214 H7         69.0033   62.1217   46.0965 U6         2 LUT      0.042190
    215 H42        66.5605   64.5781   49.1523 U5         2 LUT      0.145166
    216 H41        67.9684   65.1665   49.7294 U5         2 LUT      0.145166
    217 H35        78.8755   66.1869   41.9694 T3         2 LUT      0.077919
    218 H34        79.5434   64.8662   39.2561 T2         2 LUT      0.073626
    219 H32        81.5068   65.2801   38.3197 T1         2 LUT      0.092510
    220 H31        83.1829   67.7014   39.2780 U9         2 LUT      0.070048
    221 H30        83.4431   65.6469   36.9425 U8         2 LUT      0.085442
    222 H3         66.4983   62.9441   50.5373 U3         2 LUT     -0.031596
    223 H28        84.9567   65.7197   35.5125 U7         2 LUT      0.084728
    224 H27        86.7631   68.1761   35.1939 U6         2 LUT      0.087291
    225 H26        86.5871   65.3677   34.0456 Q6         2 LUT      0.075325
    226 H24        88.5357   66.7251   31.0042 Q5         2 LUT      0.094482
    227 H23        90.5596   66.4304   32.9410 U3         2 LUT     -0.024869
    228 H22        67.4872   61.5267   49.6299 U2         2 LUT      0.127376
    229 H21        68.4694   61.3939   51.0015 U2         2 LUT      0.127376
    230 H15        77.6434   64.1383   40.0293 T3         2 LUT      0.093200
    231 H14        76.5939   65.5967   42.5766 T2         2 LUT      0.068865
    232 H12        74.5104   65.1580   43.6072 T1         2 LUT      0.095507
    233 H11        72.7752   63.0538   42.3602 U9         2 LUT      0.068930
    234 H10        72.7694   64.5102   45.0920 U8         2 LUT      0.083911
    235 H1         89.8830   64.3770   31.1211 Q1         2 LUT      0.297311
@<TRIPOS>BOND
    1     6     1 1
    2     7     2 1
    3     8     3 1
    4     9     4 1
    5    11     4 1
    6    12     6 1
    7    13     9 1
    8    16     9 1
    9    25     5 1
   10    25    16 1
   11    26    10 1
   12    26    17 1
   13    27    18 1
   14    28    14 1
   15    28    19 1
   16    29    12 1
   17    30    13 1
   18    31    24 1
   19    32     1 1
   20    32    25 1
   21    33    21 1
   22    33    26 1
   23    34    22 1
   24    34    27 1
   25    35    23 1
   26    35    28 1
   27    36    12 1
   28    36    24 1
   29    37    13 1
   30    37    15 1
   31    38    31 1
   32    39    20 1
   33    39    32 1
   34    40     2 1
   35    40    33 1
   36    41     3 1
   37    41    34 1
   38    42     4 1
   39    42    35 1
   40    43    38 1
   41    44     5 1
   42    44    17 1
   43    44    39 1
   44    45    10 1
   45    45    18 1
   46    45    40 1
   47    46    19 1
   48    46    41 1
   49    47    14 1
   50    47    16 1
   51    47    42 1
   52    48    38 1
   53    49    48 1
   54    50    49 1
   55    51    50 1
   56    52    51 1
   57    53    51 1
   58    54    53 1
   59    55    54 1
   60    56    55 1
   61    57    56 1
   62    58    56 1
   63    59    58 1
   64    60    59 1
   65    61    60 1
   66    62    61 1
   67    63    61 1
   68    64    27 1
   69    64    46 1
   70    65     5 1
   71    65    10 1
   72    65    64 1
   73    65    14 1
   74    66    23 1
   75    67    23 1
   76    68    23 1
   77    69    22 1
   78    70    22 1
   79    71    22 1
   80    72    21 1
   81    73    21 1
   82    74    21 1
   83    75    20 1
   84    76    20 1
   85    77    20 1
   86    78    15 1
   87    79    15 1
   88    80    15 1
   89    81     8 1
   90    82     8 1
   91    83     8 1
   92    84     7 1
   93    85     7 1
   94    86     6 1
   95    87     6 1
   96    88     3 1
   97    89     3 1
   98    90     1 1
   99    91     1 1
  100    92    63 1
  101    93    63 1
  102    94    63 1
  103    95    62 1
  104    96    62 1
  105    97    62 1
  106    98    60 1
  107    99    60 1
  108   100    59 1
  109   101    59 1
  110   102    58 1
  111   103    58 1
  112   104    57 1
  113   105    57 1
  114   106    57 1
  115   107    55 1
  116   108    55 1
  117   109    54 1
  118   110    54 1
  119   111    53 1
  120   112    53 1
  121   113    19 1
  122   114    18 1
  123   115    17 1
  124   116     9 1
  125   117     2 1
  126   118    52 1
  127   119    52 1
  128   120    52 1
  129   121    51 1
  130   122    50 1
  131   123    50 1
  132   124    49 1
  133   125    49 1
  134   126    48 1
  135   127    48 1
  136   128    43 1
  137   129    43 1
  138   130    43 1
  139   131    39 1
  140   132    32 1
  141   133    31 1
  142   134    61 1
  143   135    56 1
  144   136    24 1
  145   137    24 1
  146   139   138 1
  147   140   139 1
  148   141   140 1
  149   142   140 1
  150   143   142 1
  151   144   138 1
  152   144   143 1
  153   145   144 1
  154   146   145 1
  155   147   146 1
  156   148   147 1
  157   149   148 1
  158   150   149 1
  159   151   150 1
  160   152   151 1
  161   153   152 1
  162   154   138 1
  163   155   138 1
  164   156   143 1
  165   157   147 1
  166   158   151 1
  167   160   159 1
  168   161   160 1
  169   162   161 1
  170   163   161 1
  171   164   163 1
  172   165   159 1
  173   165   164 1
  174   166   165 1
  175   167   166 1
  176   168   167 1
  177   169   168 1
  178   170   169 1
  179   171   170 1
  180   172   171 1
  181   173   172 1
  182   174   153 1
  183   174   173 1
  184   175   159 1
  185   176   159 1
  186   177   164 1
  187   178   168 1
  188   179   172 1
  189   180   179 1
  190   181   179 1
  191   182   179 1
  192   183   178 1
  193   184   178 1
  194   185   178 1
  195   186   177 1
  196   187   177 1
  197   188   177 1
  198   189   176 1
  199   190   176 1
  200   191   176 1
  201   192   175 1
  202   193   175 1
  203   194   175 1
  204   195   160 1
  205   196   160 1
  206   197   158 1
  207   198   158 1
  208   199   158 1
  209   200   157 1
  210   201   157 1
  211   202   157 1
  212   203   156 1
  213   204   156 1
  214   205   156 1
  215   206   155 1
  216   207   155 1
  217   208   155 1
  218   209   154 1
  219   210   154 1
  220   211   154 1
  221   212   141 1
  222   213   146 1
  223   214   145 1
  224   215   142 1
  225   216   142 1
  226   217   174 1
  227   218   173 1
  228   219   171 1
  229   220   170 1
  230   221   169 1
  231   222   140 1
  232   223   167 1
  233   224   166 1
  234   225   165 1
  235   226   163 1
  236   227   161 1
  237   228   139 1
  238   229   139 1
  239   230   153 1
  240   231   152 1
  241   232   150 1
  242   233   149 1
  243   234   148 1
  244   235   162 1
  245   65    153 1
  246   65    174 1
@<TRIPOS>SUBSTRUCTURE
      1 CLA               1 ****               0 ****  **** 
      2 LUT             138 ****               0 ****  **** 
