@<TRIPOS>MOLECULE
Cpptraj generated mol2 file.
  235   246     2     0     0
SMALL
USER_CHARGES


@<TRIPOS>ATOM
      1 CAA        79.6993   58.0343   34.6026 a2         1 CLA     -0.055900
      2 CAB        79.6174   61.8218   43.9123 c8         1 CLA     -0.148500
      3 CAC        72.6673   57.8372   43.4006 a2         1 CLA     -0.012600
      4 CAD        75.2723   55.7071   35.8692 ck         1 CLA      0.398800
      5 NA         78.5493   58.6328   38.0848 ns         1 CLA     -0.225500
      6 CBA        81.0646   58.0231   33.9169 a2         1 CLA     -0.135000
      7 CBB        80.8697   61.9553   44.4725 c0         1 CLA     -0.395200
      8 CBC        72.6849   56.2848   43.3943 a3         1 CLA     -0.037700
      9 CBD        76.7446   56.1145   35.5786 a1         1 CLA     -0.053900
     10 NB         78.5039   59.9325   40.8668 nm         1 CLA     -0.295700
     11 OBD        74.6531   54.9969   35.0569 o2         1 CLA     -0.494600
     12 CGA        81.4982   56.6365   33.5063 c4         1 CLA      0.827000
     13 CGD        77.5187   54.8155   35.5387 c4         1 CLA      0.655300
     14 ND         75.7823   57.5311   38.8081 nm         1 CLA     -0.291600
     15 CED        78.5148   53.3663   36.9675 a3         1 CLA      0.005400
     16 CHA        77.1528   57.0246   36.7614 cs         1 CLA     -0.123800
     17 CHB        80.3484   60.0149   39.1568 aa         1 CLA     -0.291900
     18 CHC        77.2015   60.0578   42.9394 aa         1 CLA     -0.090400
     19 CHD        73.9015   57.7339   40.3060 aa         1 CLA     -0.052000
     20 CMA        81.8821   57.8255   37.4547 a3         1 CLA     -0.230700
     21 CMB        81.6645   61.8545   41.3283 a3         1 CLA     -0.180800
     22 CMC        74.9416   59.4366   45.1239 a3         1 CLA     -0.134000
     23 CMD        72.4361   55.8443   37.9588 a3         1 CLA     -0.141100
     24 C1         82.3610   54.6183   34.4565 a2         1 CLA      0.023000
     25 C1A        78.3457   57.7660   36.9868 ac         1 CLA     -0.015100
     26 C1B        79.7192   60.3820   40.4510 cr         1 CLA      0.054700
     27 C1C        76.0597   59.3461   42.6082 cn         1 CLA     -0.005600
     28 C1D        74.4580   57.2719   39.1007 ap         1 CLA     -0.047300
     29 O1A        81.2973   56.1215   32.4283 o2         1 CLA     -0.610800
     30 O1D        78.1725   54.4427   34.5240 o2         1 CLA     -0.558200
     31 C2         82.8790   53.9450   35.7047 c8         1 CLA     -0.325100
     32 C2A        79.6736   57.7140   36.1169 a1         1 CLA      0.098600
     33 C2B        80.3306   61.1679   41.4909 cb         1 CLA      0.088500
     34 C2C        74.9226   59.0831   43.5787 cb         1 CLA      0.053700
     35 C2D        73.8690   56.4500   38.1065 cb         1 CLA      0.058900
     36 O2A        82.0728   56.0617   34.6163 o1         1 CLA     -0.437200
     37 O2D        77.4450   54.2530   36.7767 o1         1 CLA     -0.357600
     38 C3         83.9415   53.1293   35.7430 c5         1 CLA      0.031200
     39 C3A        80.6551   58.6199   36.8982 a1         1 CLA      0.166800
     40 C3B        79.4512   61.2086   42.5771 cb         1 CLA      0.035000
     41 C3C        74.0239   58.4013   42.8125 cb         1 CLA     -0.089900
     42 C3D        74.9135   56.2717   37.1842 cb         1 CLA     -0.035900
     43 C4         83.8247   51.5989   35.6744 a3         1 CLA     -0.053300
     44 C4A        79.8206   59.1188   38.1246 ac         1 CLA      0.001800
     45 C4B        78.2757   60.4513   42.1737 cn         1 CLA     -0.020900
     46 C4C        74.5545   58.3526   41.4779 cr         1 CLA     -0.044400
     47 C4D        76.0498   56.9639   37.6424 c6         1 CLA     -0.046000
     48 C5         85.3350   53.6015   35.9864 a2         1 CLA     -0.070400
     49 C6         85.3959   54.8782   36.8598 a2         1 CLA      0.043900
     50 C7         86.6800   54.8397   37.7214 a2         1 CLA     -0.150000
     51 C8         86.8316   56.0038   38.7017 a1         1 CLA      0.064200
     52 C9         86.9186   57.4072   37.9939 a3         1 CLA     -0.259300
     53 C10        88.1347   55.8263   39.6220 a2         1 CLA     -0.071900
     54 C11        88.0792   56.6602   40.8958 a2         1 CLA      0.014500
     55 C12        88.3146   55.8003   42.1316 a2         1 CLA     -0.112100
     56 C13        88.3453   56.6075   43.3851 a1         1 CLA      0.089200
     57 C14        88.9607   55.8488   44.5127 a3         1 CLA     -0.239100
     58 C15        86.9825   57.2782   43.7357 a2         1 CLA     -0.102200
     59 C16        86.5868   57.4113   45.2634 a2         1 CLA      0.023900
     60 C17        85.2916   58.2756   45.4863 a2         1 CLA     -0.105700
     61 C18        85.0914   58.6416   47.0320 a1         1 CLA      0.206800
     62 C19        83.8917   59.5215   47.0716 a3         1 CLA     -0.280100
     63 C20        84.9323   57.4189   47.9605 a3         1 CLA     -0.280100
     64 NC         75.8178   58.8473   41.3716 nx         1 CLA     -0.309200
     65 MG         77.0603   58.9002   39.6558 mg         1 CLA      0.895000
     66 HMD3       72.3518   54.7518   37.9366 dc         1 CLA      0.064300
     67 HMD2       71.8584   56.3190   38.7629 dc         1 CLA      0.064300
     68 HMD1       71.9325   56.3211   37.1426 dc         1 CLA      0.064300
     69 HMC3       74.6711   60.5003   45.3784 dc         1 CLA      0.052100
     70 HMC2       74.4030   58.6724   45.7410 dc         1 CLA      0.052100
     71 HMC1       76.0317   59.3250   45.3334 dc         1 CLA      0.052100
     72 HMB3       81.9461   61.9010   40.3086 dc         1 CLA      0.063600
     73 HMB2       81.5704   62.8995   41.6906 dc         1 CLA      0.063600
     74 HMB1       82.5254   61.3718   41.7645 dc         1 CLA      0.063600
     75 HMA3       82.5204   57.5151   36.6577 dc         1 CLA      0.058300
     76 HMA2       82.4753   58.3408   38.1658 dc         1 CLA      0.058300
     77 HMA1       81.6420   56.9678   37.9707 dc         1 CLA      0.058300
     78 HED3       78.4071   52.4604   36.3374 dc         1 CLA      0.079300
     79 HED2       79.5163   53.8004   36.8748 dc         1 CLA      0.079300
     80 HED1       78.4399   53.0179   37.9904 dc         1 CLA      0.079300
     81 HBC3       73.6326   55.8745   43.8369 dc         1 CLA      0.016300
     82 HBC2       71.8094   55.8602   43.8783 dc         1 CLA      0.016300
     83 HBC1       72.7210   55.9076   42.3832 dc         1 CLA      0.016300
     84 HBB2       80.9700   62.0805   45.5626 da         1 CLA      0.183000
     85 HBB1       81.8153   61.5916   43.9247 da         1 CLA      0.183000
     86 HBA2       80.9961   58.5177   32.9426 dc         1 CLA      0.029400
     87 HBA1       81.8294   58.5011   34.4287 dc         1 CLA      0.029400
     88 HAC2       72.5482   58.1622   44.4289 dc         1 CLA      0.029300
     89 HAC1       71.8438   58.2346   42.7998 dc         1 CLA      0.029300
     90 HAA2       79.1578   57.3264   34.0171 dc         1 CLA      0.028700
     91 HAA1       79.2441   59.0047   34.3919 dc         1 CLA      0.028700
     92 H203       84.9040   57.6001   49.0368 dc         1 CLA      0.065600
     93 H202       83.9828   56.8979   47.7219 dc         1 CLA      0.065600
     94 H201       85.6260   56.6542   47.6946 dc         1 CLA      0.065600
     95 H193       83.8021   60.0070   48.0548 dc         1 CLA      0.065600
     96 H192       84.0304   60.3707   46.4266 dc         1 CLA      0.065600
     97 H191       82.9027   59.1125   46.7291 dc         1 CLA      0.065600
     98 H172       85.3396   59.1884   44.8332 dc         1 CLA      0.027600
     99 H171       84.3864   57.6986   45.2613 dc         1 CLA      0.027600
    100 H162       86.5162   56.3863   45.6359 dc         1 CLA      0.002900
    101 H161       87.3230   57.9374   45.8742 dc         1 CLA      0.002900
    102 H152       86.8859   58.2770   43.2890 dc         1 CLA      0.029100
    103 H151       86.2107   56.6419   43.2792 dc         1 CLA      0.029100
    104 H143       89.1503   56.5758   45.3180 dc         1 CLA      0.063600
    105 H142       88.2647   55.1184   44.9218 dc         1 CLA      0.063600
    106 H141       89.8799   55.3458   44.2108 dc         1 CLA      0.063600
    107 H122       87.6186   54.8724   42.1773 dc         1 CLA      0.032500
    108 H121       89.3801   55.3893   42.0495 dc         1 CLA      0.032500
    109 H112       88.7823   57.4278   40.6766 dc         1 CLA      0.006600
    110 H111       87.0769   57.2037   40.8921 dc         1 CLA      0.006600
    111 H102       88.3562   54.7750   39.9017 dc         1 CLA      0.024100
    112 H101       88.9801   56.0424   38.9928 dc         1 CLA      0.024100
    113 HHD        72.8993   57.4192   40.4248 da         1 CLA      0.174300
    114 HHC        77.0906   60.4631   43.9448 da         1 CLA      0.136800
    115 HHB        81.4504   60.2570   39.0302 da         1 CLA      0.138300
    116 HBD        76.8718   56.5692   34.5818 dc         1 CLA      0.107700
    117 HAB        78.7457   62.0007   44.4372 da         1 CLA      0.155200
    118 H93        86.1024   57.7525   37.4187 dc         1 CLA      0.069500
    119 H92        87.1275   58.2061   38.7241 dc         1 CLA      0.069500
    120 H91        87.8089   57.3606   37.3805 dc         1 CLA      0.069500
    121 H8         85.9561   56.0774   39.4102 dc         1 CLA      0.029300
    122 H72        86.5742   53.9622   38.3527 dc         1 CLA      0.044400
    123 H71        87.6453   54.7318   37.0956 dc         1 CLA      0.044400
    124 H62        85.2972   55.7014   36.1616 dc         1 CLA      0.015600
    125 H61        84.6204   54.9568   37.5747 dc         1 CLA      0.015600
    126 H52        85.9495   52.7910   36.4556 dc         1 CLA      0.033200
    127 H51        85.8730   53.8196   35.0183 dc         1 CLA      0.033200
    128 H43        82.8198   51.1680   35.8534 dc         1 CLA      0.037000
    129 H42        83.9148   51.3144   34.6106 dc         1 CLA      0.037000
    130 H41        84.5545   51.0960   36.2726 dc         1 CLA      0.037000
    131 H3A        80.9503   59.4982   36.3415 dc         1 CLA      0.041100
    132 H2A        80.0172   56.6859   36.1149 dc         1 CLA      0.083100
    133 H2         82.5272   54.0824   36.6824 da         1 CLA      0.180900
    134 H18        85.9166   59.2431   47.3809 dc         1 CLA     -0.003900
    135 H13        88.9996   57.4517   43.2931 dc         1 CLA      0.019700
    136 H12        81.3548   54.0819   34.1710 dc         1 CLA      0.120400
    137 H11        83.0216   54.3710   33.5862 dc         1 CLA      0.120400
    138 C1         68.3777   61.6146   50.4275 Z1         2 LUT      0.509236
    139 C2         68.4066   62.8586   51.2553 Z2         2 LUT     -0.434695
    140 C3         67.2306   63.7775   51.0867 Z3         2 LUT      0.437453
    141 O3         67.5609   65.1166   51.5559 S1         2 LUT     -0.547129
    142 C4         66.6937   63.8326   49.6562 Z4         2 LUT     -0.468603
    143 C5         67.5218   63.0187   48.5844 Z5         2 LUT      0.279246
    144 C6         68.2944   61.9676   48.9123 Z6         2 LUT     -0.305473
    145 C7         69.2779   61.4553   47.9292 Z7         2 LUT      0.069402
    146 C8         70.1516   62.1171   47.2306 Z8         2 LUT     -0.191631
    147 C9         70.9719   61.7632   46.0785 Z9         2 LUT      0.196698
    148 C10        71.9275   62.5901   45.5416 Y1         2 LUT     -0.208611
    149 C11        72.6659   62.3686   44.3745 Y2         2 LUT      0.030784
    150 C12        73.7295   63.1045   43.9266 Y3         2 LUT     -0.220316
    151 C13        74.5853   62.9577   42.7209 Y4         2 LUT      0.215937
    152 C14        75.6263   63.8633   42.6941 Y5         2 LUT     -0.185793
    153 C15        76.6208   63.9294   41.6969 Y6         2 LUT     -0.057835
    154 C16        67.1977   60.7191   50.9069 Y7         2 LUT     -0.405615
    155 C17        69.6606   60.7702   50.7668 Y7         2 LUT     -0.405615
    156 C18        67.5207   63.7278   47.2592 Y9         2 LUT     -0.369639
    157 C19        70.6424   60.4528   45.3708 W1         2 LUT     -0.333362
    158 C20        74.1231   62.1372   41.6064 W2         2 LUT     -0.323439
    159 C21        88.0775   65.4663   35.5496 Z1         2 LUT      0.406104
    160 C22        88.6901   64.7836   34.2994 Z2         2 LUT     -0.404965
    161 C23        88.9794   65.6819   33.1390 Z3         2 LUT      0.391255
    162 O23        89.3455   64.7237   32.0584 S1         2 LUT     -0.528210
    163 C24        87.7054   66.4912   32.8064 W6         2 LUT     -0.258361
    164 C25        86.6277   66.6531   33.6139 Z5         2 LUT      0.133546
    165 C26        86.6363   65.9834   35.0960 W8         2 LUT     -0.147008
    166 C27        85.8283   66.5258   36.1992 Z7         2 LUT      0.023843
    167 C28        84.6195   66.0799   36.6970 Z8         2 LUT     -0.216987
    168 C29        83.8773   66.5606   37.8815 Z9         2 LUT      0.206524
    169 C30        82.7405   65.8405   38.2221 Y1         2 LUT     -0.215556
    170 C31        81.9555   66.0466   39.3673 Y2         2 LUT      0.025142
    171 C32        80.7861   65.3668   39.6049 Y3         2 LUT     -0.212209
    172 C33        79.9207   65.3956   40.8351 Y4         2 LUT      0.240937
    173 C34        78.6740   64.7996   40.7058 Y5         2 LUT     -0.218862
    174 C35        77.7461   64.7226   41.6958 Y6         2 LUT     -0.023547
    175 C36        88.9290   66.6284   36.0369 Y7         2 LUT     -0.393485
    176 C37        88.1348   64.4689   36.6560 Y7         2 LUT     -0.393485
    177 C38        85.4021   67.4771   33.1547 Y9         2 LUT     -0.387526
    178 C39        84.3599   67.8332   38.5004 W1         2 LUT     -0.322618
    179 C40        80.5788   66.0146   42.0389 W2         2 LUT     -0.358472
    180 H403       80.7556   67.0347   41.9061 R7         2 LUT      0.097720
    181 H402       79.9606   66.0847   42.9368 R7         2 LUT      0.097720
    182 H401       81.5628   65.6322   42.3258 R7         2 LUT      0.097720
    183 H393       84.2959   68.6660   37.8201 R4         2 LUT      0.082505
    184 H392       83.6810   68.1713   39.2282 R4         2 LUT      0.082505
    185 H391       85.4321   67.7660   38.7724 R4         2 LUT      0.082505
    186 H383       84.4259   66.9339   33.1482 R1         2 LUT      0.104030
    187 H382       85.2477   68.4138   33.8077 R1         2 LUT      0.104030
    188 H381       85.5459   67.9162   32.1349 R1         2 LUT      0.104030
    189 H373       89.1716   64.1983   36.9272 T4         2 LUT      0.089537
    190 H372       87.6372   64.6923   37.5614 T4         2 LUT      0.089537
    191 H371       87.6359   63.6146   36.2644 T4         2 LUT      0.089537
    192 H363       88.8177   67.4118   35.2172 T4         2 LUT      0.089537
    193 H362       88.4539   67.0332   36.9605 T4         2 LUT      0.089537
    194 H361       89.9826   66.3612   36.1338 T4         2 LUT      0.089537
    195 H222       89.5503   64.1942   34.5904 U2         2 LUT      0.127376
    196 H221       87.9956   64.0097   33.8865 U2         2 LUT      0.127376
    197 H203       74.9244   61.6775   40.9983 R7         2 LUT      0.087068
    198 H202       73.6890   61.1973   41.8435 R7         2 LUT      0.087068
    199 H201       73.4810   62.6400   40.8832 R7         2 LUT      0.087068
    200 H193       70.1250   59.7714   46.0300 R4         2 LUT      0.089716
    201 H192       69.9766   60.6446   44.5462 R4         2 LUT      0.089716
    202 H191       71.4843   59.9069   44.9840 R4         2 LUT      0.089716
    203 H183       68.0004   64.6961   47.3002 R1         2 LUT      0.094572
    204 H182       67.8792   63.1486   46.4566 R1         2 LUT      0.094572
    205 H181       66.5019   63.9625   46.9823 R1         2 LUT      0.094572
    206 H173       70.5265   61.2448   50.3622 T4         2 LUT      0.093752
    207 H172       69.7825   60.6084   51.8182 T4         2 LUT      0.093752
    208 H171       69.6830   59.8094   50.2422 T4         2 LUT      0.093752
    209 H163       67.2303   59.6537   50.5215 T4         2 LUT      0.093752
    210 H162       67.1889   60.6484   51.9703 T4         2 LUT      0.093752
    211 H161       66.2233   61.1548   50.6149 T4         2 LUT      0.093752
    212 HO3        66.7756   65.5655   51.9372 Q1         2 LUT      0.300121
    213 H8         70.2529   63.1405   47.4598 U7         2 LUT      0.080784
    214 H7         69.2486   60.3617   47.7237 U6         2 LUT      0.042190
    215 H42        65.6834   63.3687   49.6292 U5         2 LUT      0.145166
    216 H41        66.5759   64.9178   49.3757 U5         2 LUT      0.145166
    217 H35        77.7885   65.2634   42.6473 T3         2 LUT      0.077919
    218 H34        78.4700   64.2597   39.7508 T2         2 LUT      0.073626
    219 H32        80.4213   64.7182   38.7768 T1         2 LUT      0.092510
    220 H31        82.4489   66.6120   40.1764 U9         2 LUT      0.070048
    221 H30        82.5057   64.9794   37.5681 U8         2 LUT      0.085442
    222 H3         66.4072   63.2234   51.5652 U3         2 LUT     -0.031596
    223 H28        84.1365   65.1997   36.2765 U7         2 LUT      0.084728
    224 H27        86.1989   67.3515   36.7323 U6         2 LUT      0.087291
    225 H26        86.1383   64.9991   34.7880 Q6         2 LUT      0.075325
    226 H24        87.6592   67.0816   31.8294 Q5         2 LUT      0.094482
    227 H23        89.8369   66.2967   33.3022 U3         2 LUT     -0.024869
    228 H22        68.5622   62.6619   52.3378 U2         2 LUT      0.127376
    229 H21        69.2370   63.5060   50.8972 U2         2 LUT      0.127376
    230 H15        76.4663   63.2009   40.8602 T3         2 LUT      0.093200
    231 H14        75.7150   64.6903   43.3741 T2         2 LUT      0.068865
    232 H12        74.1130   63.8659   44.5889 T1         2 LUT      0.095507
    233 H11        72.3990   61.5567   43.6656 U9         2 LUT      0.068930
    234 H10        72.0958   63.5474   46.0746 U8         2 LUT      0.083911
    235 H1         89.6184   65.2206   31.2887 Q1         2 LUT      0.297311
@<TRIPOS>BOND
    1     6     1 1
    2     7     2 1
    3     8     3 1
    4     9     4 1
    5    11     4 1
    6    12     6 1
    7    13     9 1
    8    16     9 1
    9    25     5 1
   10    25    16 1
   11    26    10 1
   12    26    17 1
   13    27    18 1
   14    28    14 1
   15    28    19 1
   16    29    12 1
   17    30    13 1
   18    31    24 1
   19    32     1 1
   20    32    25 1
   21    33    21 1
   22    33    26 1
   23    34    22 1
   24    34    27 1
   25    35    23 1
   26    35    28 1
   27    36    12 1
   28    36    24 1
   29    37    13 1
   30    37    15 1
   31    38    31 1
   32    39    20 1
   33    39    32 1
   34    40     2 1
   35    40    33 1
   36    41     3 1
   37    41    34 1
   38    42     4 1
   39    42    35 1
   40    43    38 1
   41    44     5 1
   42    44    17 1
   43    44    39 1
   44    45    10 1
   45    45    18 1
   46    45    40 1
   47    46    19 1
   48    46    41 1
   49    47    14 1
   50    47    16 1
   51    47    42 1
   52    48    38 1
   53    49    48 1
   54    50    49 1
   55    51    50 1
   56    52    51 1
   57    53    51 1
   58    54    53 1
   59    55    54 1
   60    56    55 1
   61    57    56 1
   62    58    56 1
   63    59    58 1
   64    60    59 1
   65    61    60 1
   66    62    61 1
   67    63    61 1
   68    64    27 1
   69    64    46 1
   70    65     5 1
   71    65    10 1
   72    65    64 1
   73    65    14 1
   74    66    23 1
   75    67    23 1
   76    68    23 1
   77    69    22 1
   78    70    22 1
   79    71    22 1
   80    72    21 1
   81    73    21 1
   82    74    21 1
   83    75    20 1
   84    76    20 1
   85    77    20 1
   86    78    15 1
   87    79    15 1
   88    80    15 1
   89    81     8 1
   90    82     8 1
   91    83     8 1
   92    84     7 1
   93    85     7 1
   94    86     6 1
   95    87     6 1
   96    88     3 1
   97    89     3 1
   98    90     1 1
   99    91     1 1
  100    92    63 1
  101    93    63 1
  102    94    63 1
  103    95    62 1
  104    96    62 1
  105    97    62 1
  106    98    60 1
  107    99    60 1
  108   100    59 1
  109   101    59 1
  110   102    58 1
  111   103    58 1
  112   104    57 1
  113   105    57 1
  114   106    57 1
  115   107    55 1
  116   108    55 1
  117   109    54 1
  118   110    54 1
  119   111    53 1
  120   112    53 1
  121   113    19 1
  122   114    18 1
  123   115    17 1
  124   116     9 1
  125   117     2 1
  126   118    52 1
  127   119    52 1
  128   120    52 1
  129   121    51 1
  130   122    50 1
  131   123    50 1
  132   124    49 1
  133   125    49 1
  134   126    48 1
  135   127    48 1
  136   128    43 1
  137   129    43 1
  138   130    43 1
  139   131    39 1
  140   132    32 1
  141   133    31 1
  142   134    61 1
  143   135    56 1
  144   136    24 1
  145   137    24 1
  146   139   138 1
  147   140   139 1
  148   141   140 1
  149   142   140 1
  150   143   142 1
  151   144   138 1
  152   144   143 1
  153   145   144 1
  154   146   145 1
  155   147   146 1
  156   148   147 1
  157   149   148 1
  158   150   149 1
  159   151   150 1
  160   152   151 1
  161   153   152 1
  162   154   138 1
  163   155   138 1
  164   156   143 1
  165   157   147 1
  166   158   151 1
  167   160   159 1
  168   161   160 1
  169   162   161 1
  170   163   161 1
  171   164   163 1
  172   165   159 1
  173   165   164 1
  174   166   165 1
  175   167   166 1
  176   168   167 1
  177   169   168 1
  178   170   169 1
  179   171   170 1
  180   172   171 1
  181   173   172 1
  182   174   153 1
  183   174   173 1
  184   175   159 1
  185   176   159 1
  186   177   164 1
  187   178   168 1
  188   179   172 1
  189   180   179 1
  190   181   179 1
  191   182   179 1
  192   183   178 1
  193   184   178 1
  194   185   178 1
  195   186   177 1
  196   187   177 1
  197   188   177 1
  198   189   176 1
  199   190   176 1
  200   191   176 1
  201   192   175 1
  202   193   175 1
  203   194   175 1
  204   195   160 1
  205   196   160 1
  206   197   158 1
  207   198   158 1
  208   199   158 1
  209   200   157 1
  210   201   157 1
  211   202   157 1
  212   203   156 1
  213   204   156 1
  214   205   156 1
  215   206   155 1
  216   207   155 1
  217   208   155 1
  218   209   154 1
  219   210   154 1
  220   211   154 1
  221   212   141 1
  222   213   146 1
  223   214   145 1
  224   215   142 1
  225   216   142 1
  226   217   174 1
  227   218   173 1
  228   219   171 1
  229   220   170 1
  230   221   169 1
  231   222   140 1
  232   223   167 1
  233   224   166 1
  234   225   165 1
  235   226   163 1
  236   227   161 1
  237   228   139 1
  238   229   139 1
  239   230   153 1
  240   231   152 1
  241   232   150 1
  242   233   149 1
  243   234   148 1
  244   235   162 1
  245   65    153 1
  246   65    174 1
@<TRIPOS>SUBSTRUCTURE
      1 CLA               1 ****               0 ****  **** 
      2 LUT             138 ****               0 ****  **** 
