@<TRIPOS>MOLECULE
Cpptraj generated mol2 file.
  235   246     2     0     0
SMALL
USER_CHARGES


@<TRIPOS>ATOM
      1 CAA        78.4148   58.7977   34.2785 a2         1 CLA     -0.055900
      2 CAB        78.4397   62.3287   43.1848 c8         1 CLA     -0.148500
      3 CAC        71.6130   57.9577   42.8434 a2         1 CLA     -0.012600
      4 CAD        74.0487   56.0621   35.4515 ck         1 CLA      0.398800
      5 NA         77.3180   59.1184   37.6209 ns         1 CLA     -0.225500
      6 CBA        79.6620   58.6924   33.2409 a2         1 CLA     -0.135000
      7 CBB        79.6377   62.3227   43.8104 c0         1 CLA     -0.395200
      8 CBC        71.5331   56.4040   42.6906 a3         1 CLA     -0.037700
      9 CBD        75.5039   56.5879   35.1224 a1         1 CLA     -0.053900
     10 NB         77.1667   60.4786   40.2993 nm         1 CLA     -0.295700
     11 OBD        73.3773   55.2517   34.8124 o2         1 CLA     -0.494600
     12 CGA        80.0869   57.2071   32.9363 c4         1 CLA      0.827000
     13 CGD        76.3720   55.3573   34.7346 c4         1 CLA      0.655300
     14 ND         74.5836   58.0384   38.2667 nm         1 CLA     -0.291600
     15 CED        77.4056   53.3181   35.2872 a3         1 CLA      0.005400
     16 CHA        75.9755   57.5156   36.2454 cs         1 CLA     -0.123800
     17 CHB        79.0915   60.3138   38.7478 aa         1 CLA     -0.291900
     18 CHC        75.8287   60.6005   42.3913 aa         1 CLA     -0.090400
     19 CHD        72.7728   57.7636   39.8912 aa         1 CLA     -0.052000
     20 CMA        80.7107   58.1204   37.0313 a3         1 CLA     -0.230700
     21 CMB        80.6199   62.0252   40.7592 a3         1 CLA     -0.180800
     22 CMC        73.7578   59.9595   44.4521 a3         1 CLA     -0.134000
     23 CMD        71.4109   56.0516   37.6405 a3         1 CLA     -0.141100
     24 C1         80.8681   55.1463   33.8747 a2         1 CLA      0.023000
     25 C1A        77.1770   58.2981   36.4971 ac         1 CLA     -0.015100
     26 C1B        78.4783   60.7514   39.9442 cr         1 CLA      0.054700
     27 C1C        74.7550   59.7433   42.0644 cn         1 CLA     -0.005600
     28 C1D        73.3465   57.5436   38.6267 ap         1 CLA     -0.047300
     29 O1A        79.8554   56.6510   31.8901 o2         1 CLA     -0.610800
     30 O1D        77.0709   55.3500   33.6718 o2         1 CLA     -0.558200
     31 C2         81.5344   54.6853   35.1770 c8         1 CLA     -0.325100
     32 C2A        78.4941   58.2255   35.6948 a1         1 CLA      0.098600
     33 C2B        79.1519   61.4739   40.9463 cb         1 CLA      0.088500
     34 C2C        73.6941   59.4749   43.0043 cb         1 CLA      0.053700
     35 C2D        72.7664   56.7973   37.6122 cb         1 CLA      0.058900
     36 O2A        80.7677   56.6092   33.9310 o1         1 CLA     -0.437200
     37 O2D        76.4005   54.3540   35.6666 o1         1 CLA     -0.357600
     38 C3         82.5216   53.7697   35.2115 c5         1 CLA      0.031200
     39 C3A        79.4996   58.9609   36.5460 a1         1 CLA      0.166800
     40 C3B        78.2515   61.6216   42.0077 cb         1 CLA      0.035000
     41 C3C        72.8197   58.6440   42.3416 cb         1 CLA     -0.089900
     42 C3D        73.7568   56.7237   36.6848 cb         1 CLA     -0.035900
     43 C4         82.2737   52.4248   35.5910 a3         1 CLA     -0.053300
     44 C4A        78.6183   59.5303   37.7012 ac         1 CLA      0.001800
     45 C4B        76.9839   60.9265   41.5918 cn         1 CLA     -0.020900
     46 C4C        73.3591   58.5640   40.9086 cr         1 CLA     -0.044400
     47 C4D        74.8237   57.5417   37.1219 c6         1 CLA     -0.046000
     48 C5         83.9549   54.1770   34.9391 a2         1 CLA     -0.070400
     49 C6         84.3450   55.5889   35.4079 a2         1 CLA      0.043900
     50 C7         84.1410   55.9106   36.9432 a2         1 CLA     -0.150000
     51 C8         84.3624   57.3762   37.3198 a1         1 CLA      0.064200
     52 C9         85.5201   57.9618   36.5892 a3         1 CLA     -0.259300
     53 C10        84.4801   57.5766   38.9093 a2         1 CLA     -0.071900
     54 C11        83.4138   56.8020   39.7664 a2         1 CLA      0.014500
     55 C12        83.5449   57.1200   41.3018 a2         1 CLA     -0.112100
     56 C13        82.4300   56.7352   42.3029 a1         1 CLA      0.089200
     57 C14        80.9779   57.3006   41.9647 a3         1 CLA     -0.239100
     58 C15        82.6889   56.9017   43.8074 a2         1 CLA     -0.102200
     59 C16        82.4077   58.3705   44.3126 a2         1 CLA      0.023900
     60 C17        82.9166   58.4234   45.7325 a2         1 CLA     -0.105700
     61 C18        83.1953   59.9052   46.2447 a1         1 CLA      0.206800
     62 C19        81.8480   60.7448   46.6623 a3         1 CLA     -0.280100
     63 C20        84.2537   59.9326   47.3910 a3         1 CLA     -0.280100
     64 NC         74.5501   59.1867   40.8182 nx         1 CLA     -0.309200
     65 MG         75.8055   59.3546   39.1329 mg         1 CLA      0.895000
     66 HMD3       71.4609   55.2662   36.9066 dc         1 CLA      0.064300
     67 HMD2       71.2728   55.5433   38.6395 dc         1 CLA      0.064300
     68 HMD1       70.5513   56.7274   37.5236 dc         1 CLA      0.064300
     69 HMC3       72.8932   59.7595   45.0048 dc         1 CLA      0.052100
     70 HMC2       74.5963   59.5280   45.0772 dc         1 CLA      0.052100
     71 HMC1       73.7231   61.0191   44.3615 dc         1 CLA      0.052100
     72 HMB3       81.2808   61.2601   40.3588 dc         1 CLA      0.063600
     73 HMB2       80.4848   62.7512   40.0051 dc         1 CLA      0.063600
     74 HMB1       80.9091   62.5884   41.6357 dc         1 CLA      0.063600
     75 HMA3       81.3553   58.7618   37.5827 dc         1 CLA      0.058300
     76 HMA2       80.3972   57.2882   37.6787 dc         1 CLA      0.058300
     77 HMA1       81.4127   57.8547   36.2900 dc         1 CLA      0.058300
     78 HED3       77.2302   52.3731   35.9089 dc         1 CLA      0.079300
     79 HED2       77.1195   53.1465   34.2548 dc         1 CLA      0.079300
     80 HED1       78.4632   53.7143   35.3947 dc         1 CLA      0.079300
     81 HBC3       72.2918   55.9168   43.3635 dc         1 CLA      0.016300
     82 HBC2       70.6014   55.9723   43.0791 dc         1 CLA      0.016300
     83 HBC1       71.8209   56.0653   41.7482 dc         1 CLA      0.016300
     84 HBB2       79.7728   62.8469   44.7110 da         1 CLA      0.183000
     85 HBB1       80.4242   61.5839   43.4980 da         1 CLA      0.183000
     86 HBA2       79.4186   59.0917   32.2956 dc         1 CLA      0.029400
     87 HBA1       80.5878   59.1789   33.5631 dc         1 CLA      0.029400
     88 HAC2       71.4295   58.1128   43.8883 dc         1 CLA      0.029300
     89 HAC1       70.7276   58.2716   42.3430 dc         1 CLA      0.029300
     90 HAA2       77.5691   58.2711   33.8676 dc         1 CLA      0.028700
     91 HAA1       78.1455   59.8809   34.4117 dc         1 CLA      0.028700
     92 H203       85.2209   59.7502   46.9960 dc         1 CLA      0.065600
     93 H202       84.2271   60.9059   47.8123 dc         1 CLA      0.065600
     94 H201       84.1748   59.0854   48.0869 dc         1 CLA      0.065600
     95 H193       82.0148   61.8576   46.6578 dc         1 CLA      0.065600
     96 H192       80.9861   60.4422   46.0567 dc         1 CLA      0.065600
     97 H191       81.4917   60.4820   47.6901 dc         1 CLA      0.065600
     98 H172       82.1451   58.0617   46.4316 dc         1 CLA      0.027600
     99 H171       83.8230   57.8650   45.8729 dc         1 CLA      0.027600
    100 H162       83.1067   58.9657   43.7736 dc         1 CLA      0.002900
    101 H161       81.3540   58.6320   44.2839 dc         1 CLA      0.002900
    102 H152       82.1106   56.0660   44.2579 dc         1 CLA      0.029100
    103 H151       83.7912   56.8204   43.9923 dc         1 CLA      0.029100
    104 H143       81.1118   58.3463   41.7501 dc         1 CLA      0.063600
    105 H142       80.7049   56.6986   41.0667 dc         1 CLA      0.063600
    106 H141       80.3823   57.2508   42.8622 dc         1 CLA      0.063600
    107 H122       84.4575   56.6092   41.6314 dc         1 CLA      0.032500
    108 H121       83.6935   58.2188   41.4564 dc         1 CLA      0.032500
    109 H112       82.4174   57.1761   39.5341 dc         1 CLA      0.006600
    110 H111       83.3422   55.6937   39.7169 dc         1 CLA      0.006600
    111 H102       85.3536   57.0387   39.3867 dc         1 CLA      0.024100
    112 H101       84.6579   58.5690   39.1919 dc         1 CLA      0.024100
    113 HHD        71.7507   57.3276   40.0063 da         1 CLA      0.174300
    114 HHC        75.8942   61.0505   43.3826 da         1 CLA      0.136800
    115 HHB        80.1339   60.5865   38.6111 da         1 CLA      0.138300
    116 HBD        75.6258   57.2698   34.3215 dc         1 CLA      0.107700
    117 HAB        77.7037   62.9059   43.6637 da         1 CLA      0.155200
    118 H93        85.2747   58.0728   35.5516 dc         1 CLA      0.069500
    119 H92        85.7707   58.9920   36.9724 dc         1 CLA      0.069500
    120 H91        86.4022   57.3417   36.7312 dc         1 CLA      0.069500
    121 H8         83.5389   58.0099   37.0361 dc         1 CLA      0.029300
    122 H72        83.1719   55.5018   37.3262 dc         1 CLA      0.044400
    123 H71        85.0006   55.3306   37.3652 dc         1 CLA      0.044400
    124 H62        85.3999   55.7668   35.0598 dc         1 CLA      0.015600
    125 H61        83.7019   56.3254   34.9569 dc         1 CLA      0.015600
    126 H52        84.7408   53.5073   35.3058 dc         1 CLA      0.033200
    127 H51        84.0439   54.0767   33.8725 dc         1 CLA      0.033200
    128 H43        82.9206   52.1772   36.4168 dc         1 CLA      0.037000
    129 H42        81.2513   52.2230   35.8130 dc         1 CLA      0.037000
    130 H41        82.4432   51.8372   34.7012 dc         1 CLA      0.037000
    131 H3A        79.9084   59.9144   35.9964 dc         1 CLA      0.041100
    132 H2A        78.5140   57.1319   35.6401 dc         1 CLA      0.083100
    133 H2         81.2147   55.2443   36.0572 da         1 CLA      0.180900
    134 H18        83.6241   60.4822   45.3694 dc         1 CLA     -0.003900
    135 H13        82.1788   55.6717   42.2335 dc         1 CLA      0.019700
    136 H12        79.8516   54.7216   33.7346 dc         1 CLA      0.120400
    137 H11        81.4414   54.9675   32.9698 dc         1 CLA      0.120400
    138 C1         68.1836   61.2136   50.2478 Z1         2 LUT      0.509236
    139 C2         67.7637   61.8212   51.6208 Z2         2 LUT     -0.434695
    140 C3         66.3506   62.3444   51.5724 Z3         2 LUT      0.437453
    141 O3         65.9614   62.8833   52.8966 S1         2 LUT     -0.547129
    142 C4         66.3348   63.4812   50.6188 Z4         2 LUT     -0.468603
    143 C5         66.8409   63.0891   49.1912 Z5         2 LUT      0.279246
    144 C6         67.6530   61.9812   48.9721 Z6         2 LUT     -0.305473
    145 C7         68.2809   61.6705   47.6441 Z7         2 LUT      0.069402
    146 C8         69.2122   62.3792   47.0291 Z8         2 LUT     -0.191631
    147 C9         69.9055   62.0548   45.6814 Z9         2 LUT      0.196698
    148 C10        70.9165   62.9090   45.3546 Y1         2 LUT     -0.208611
    149 C11        71.7262   62.8917   44.2374 Y2         2 LUT      0.030784
    150 C12        72.7558   63.7587   44.0720 Y3         2 LUT     -0.220316
    151 C13        73.6397   63.5462   42.8830 Y4         2 LUT      0.215937
    152 C14        74.7765   64.2494   42.8628 Y5         2 LUT     -0.185793
    153 C15        75.7527   64.4874   41.8202 Y6         2 LUT     -0.057835
    154 C16        67.5449   59.7877   50.1735 Y7         2 LUT     -0.405615
    155 C17        69.6632   60.9741   50.4039 Y7         2 LUT     -0.405615
    156 C18        66.5407   64.1689   48.1705 Y9         2 LUT     -0.369639
    157 C19        69.6657   60.7504   45.0189 W1         2 LUT     -0.333362
    158 C20        73.0573   62.9675   41.5948 W2         2 LUT     -0.323439
    159 C21        87.2565   66.5288   35.7006 Z1         2 LUT      0.406104
    160 C22        88.2418   66.0484   34.5876 Z2         2 LUT     -0.404965
    161 C23        88.1519   66.8004   33.2690 Z3         2 LUT      0.391255
    162 O23        88.8375   65.9982   32.2585 S1         2 LUT     -0.528210
    163 C24        86.7765   67.3668   32.9976 W6         2 LUT     -0.258361
    164 C25        85.6995   67.3232   33.8223 Z5         2 LUT      0.133546
    165 C26        85.7156   66.5808   35.1931 W8         2 LUT     -0.147008
    166 C27        84.8110   67.1831   36.2788 Z7         2 LUT      0.023843
    167 C28        83.8486   66.5427   36.9492 Z8         2 LUT     -0.216987
    168 C29        83.0372   67.0729   38.0302 Z9         2 LUT      0.206524
    169 C30        81.9842   66.2985   38.4138 Y1         2 LUT     -0.215556
    170 C31        81.2166   66.5571   39.6300 Y2         2 LUT      0.025142
    171 C32        80.1667   65.8191   39.9902 Y3         2 LUT     -0.212209
    172 C33        79.1457   66.0694   41.0121 Y4         2 LUT      0.240937
    173 C34        78.0274   65.2670   41.0602 Y5         2 LUT     -0.218862
    174 C35        76.9229   65.2311   41.9682 Y6         2 LUT     -0.023547
    175 C36        87.7857   67.9707   36.1906 Y7         2 LUT     -0.393485
    176 C37        87.3422   65.4560   36.8022 Y7         2 LUT     -0.393485
    177 C38        84.3930   68.0182   33.4340 Y9         2 LUT     -0.387526
    178 C39        83.6095   68.3003   38.8043 W1         2 LUT     -0.322618
    179 C40        79.3889   67.1732   42.0151 W2         2 LUT     -0.358472
    180 H403       79.0997   68.0269   41.4974 R7         2 LUT      0.097720
    181 H402       78.8162   67.1397   43.0178 R7         2 LUT      0.097720
    182 H401       80.4321   67.3510   42.3352 R7         2 LUT      0.097720
    183 H393       84.5830   68.5861   38.4822 R4         2 LUT      0.082505
    184 H392       82.9608   69.1362   38.6625 R4         2 LUT      0.082505
    185 H391       83.5841   68.2669   39.8743 R4         2 LUT      0.082505
    186 H383       83.5000   67.6026   33.9750 R1         2 LUT      0.104030
    187 H382       84.4686   69.0916   33.6977 R1         2 LUT      0.104030
    188 H381       84.0845   67.9355   32.4084 R1         2 LUT      0.104030
    189 H373       88.3668   65.2892   37.1123 T4         2 LUT      0.089537
    190 H372       86.7769   65.7321   37.6796 T4         2 LUT      0.089537
    191 H371       87.0097   64.4918   36.5013 T4         2 LUT      0.089537
    192 H363       88.8646   68.0155   36.3680 T4         2 LUT      0.089537
    193 H362       87.5456   68.7610   35.4300 T4         2 LUT      0.089537
    194 H361       87.3553   68.3742   37.1323 T4         2 LUT      0.089537
    195 H222       89.3551   66.0663   34.8312 U2         2 LUT      0.127376
    196 H221       87.7269   65.0925   34.3491 U2         2 LUT      0.127376
    197 H203       72.0599   63.2381   41.3443 R7         2 LUT      0.087068
    198 H202       73.7027   63.2467   40.7663 R7         2 LUT      0.087068
    199 H201       73.1890   61.9015   41.5562 R7         2 LUT      0.087068
    200 H193       70.1782   60.6910   44.0391 R4         2 LUT      0.089716
    201 H192       70.0435   59.9572   45.5943 R4         2 LUT      0.089716
    202 H191       68.6084   60.7058   44.8248 R4         2 LUT      0.089716
    203 H183       66.8634   65.1652   48.4810 R1         2 LUT      0.094572
    204 H182       66.9570   63.9234   47.2345 R1         2 LUT      0.094572
    205 H181       65.4738   64.2329   47.8976 R1         2 LUT      0.094572
    206 H173       70.0657   60.6276   49.4391 T4         2 LUT      0.093752
    207 H172       70.2458   61.8673   50.6193 T4         2 LUT      0.093752
    208 H171       69.7794   60.2070   51.2312 T4         2 LUT      0.093752
    209 H163       67.8795   59.1483   51.0467 T4         2 LUT      0.093752
    210 H162       66.4453   59.8508   50.1872 T4         2 LUT      0.093752
    211 H161       67.8520   59.3758   49.1629 T4         2 LUT      0.093752
    212 HO3        65.7480   62.1473   53.5528 Q1         2 LUT      0.300121
    213 H8         69.6327   63.2983   47.4924 U7         2 LUT      0.080784
    214 H7         67.8508   60.7802   47.2757 U6         2 LUT      0.042190
    215 H42        65.2747   63.8919   50.5885 U5         2 LUT      0.145166
    216 H41        66.8882   64.3730   50.9731 U5         2 LUT      0.145166
    217 H35        77.1231   65.6767   42.9206 T3         2 LUT      0.077919
    218 H34        77.8863   64.5091   40.2928 T2         2 LUT      0.073626
    219 H32        79.8555   64.9514   39.3415 T1         2 LUT      0.092510
    220 H31        81.5286   67.4206   40.1770 U9         2 LUT      0.070048
    221 H30        81.7657   65.4464   37.7643 U8         2 LUT      0.085442
    222 H3         65.6183   61.5667   51.2987 U3         2 LUT     -0.031596
    223 H28        83.5530   65.5488   36.6149 U7         2 LUT      0.084728
    224 H27        84.7985   68.2880   36.4152 U6         2 LUT      0.087291
    225 H26        85.3631   65.6159   34.8221 Q6         2 LUT      0.075325
    226 H24        86.6886   67.8440   32.0490 Q5         2 LUT      0.094482
    227 H23        88.7847   67.6607   33.5030 U3         2 LUT     -0.024869
    228 H22        67.7689   61.0541   52.3516 U2         2 LUT      0.127376
    229 H21        68.3499   62.7348   51.9341 U2         2 LUT      0.127376
    230 H15        75.6714   63.9567   40.8876 T3         2 LUT      0.093200
    231 H14        74.8537   64.9434   43.7007 T2         2 LUT      0.068865
    232 H12        72.9956   64.4825   44.8278 T1         2 LUT      0.095507
    233 H11        71.5555   62.1930   43.4555 U9         2 LUT      0.068930
    234 H10        71.1083   63.7293   46.0079 U8         2 LUT      0.083911
    235 H1         88.2800   65.7002   31.5475 Q1         2 LUT      0.297311
@<TRIPOS>BOND
    1     6     1 1
    2     7     2 1
    3     8     3 1
    4     9     4 1
    5    11     4 1
    6    12     6 1
    7    13     9 1
    8    16     9 1
    9    25     5 1
   10    25    16 1
   11    26    10 1
   12    26    17 1
   13    27    18 1
   14    28    14 1
   15    28    19 1
   16    29    12 1
   17    30    13 1
   18    31    24 1
   19    32     1 1
   20    32    25 1
   21    33    21 1
   22    33    26 1
   23    34    22 1
   24    34    27 1
   25    35    23 1
   26    35    28 1
   27    36    12 1
   28    36    24 1
   29    37    13 1
   30    37    15 1
   31    38    31 1
   32    39    20 1
   33    39    32 1
   34    40     2 1
   35    40    33 1
   36    41     3 1
   37    41    34 1
   38    42     4 1
   39    42    35 1
   40    43    38 1
   41    44     5 1
   42    44    17 1
   43    44    39 1
   44    45    10 1
   45    45    18 1
   46    45    40 1
   47    46    19 1
   48    46    41 1
   49    47    14 1
   50    47    16 1
   51    47    42 1
   52    48    38 1
   53    49    48 1
   54    50    49 1
   55    51    50 1
   56    52    51 1
   57    53    51 1
   58    54    53 1
   59    55    54 1
   60    56    55 1
   61    57    56 1
   62    58    56 1
   63    59    58 1
   64    60    59 1
   65    61    60 1
   66    62    61 1
   67    63    61 1
   68    64    27 1
   69    64    46 1
   70    65     5 1
   71    65    10 1
   72    65    64 1
   73    65    14 1
   74    66    23 1
   75    67    23 1
   76    68    23 1
   77    69    22 1
   78    70    22 1
   79    71    22 1
   80    72    21 1
   81    73    21 1
   82    74    21 1
   83    75    20 1
   84    76    20 1
   85    77    20 1
   86    78    15 1
   87    79    15 1
   88    80    15 1
   89    81     8 1
   90    82     8 1
   91    83     8 1
   92    84     7 1
   93    85     7 1
   94    86     6 1
   95    87     6 1
   96    88     3 1
   97    89     3 1
   98    90     1 1
   99    91     1 1
  100    92    63 1
  101    93    63 1
  102    94    63 1
  103    95    62 1
  104    96    62 1
  105    97    62 1
  106    98    60 1
  107    99    60 1
  108   100    59 1
  109   101    59 1
  110   102    58 1
  111   103    58 1
  112   104    57 1
  113   105    57 1
  114   106    57 1
  115   107    55 1
  116   108    55 1
  117   109    54 1
  118   110    54 1
  119   111    53 1
  120   112    53 1
  121   113    19 1
  122   114    18 1
  123   115    17 1
  124   116     9 1
  125   117     2 1
  126   118    52 1
  127   119    52 1
  128   120    52 1
  129   121    51 1
  130   122    50 1
  131   123    50 1
  132   124    49 1
  133   125    49 1
  134   126    48 1
  135   127    48 1
  136   128    43 1
  137   129    43 1
  138   130    43 1
  139   131    39 1
  140   132    32 1
  141   133    31 1
  142   134    61 1
  143   135    56 1
  144   136    24 1
  145   137    24 1
  146   139   138 1
  147   140   139 1
  148   141   140 1
  149   142   140 1
  150   143   142 1
  151   144   138 1
  152   144   143 1
  153   145   144 1
  154   146   145 1
  155   147   146 1
  156   148   147 1
  157   149   148 1
  158   150   149 1
  159   151   150 1
  160   152   151 1
  161   153   152 1
  162   154   138 1
  163   155   138 1
  164   156   143 1
  165   157   147 1
  166   158   151 1
  167   160   159 1
  168   161   160 1
  169   162   161 1
  170   163   161 1
  171   164   163 1
  172   165   159 1
  173   165   164 1
  174   166   165 1
  175   167   166 1
  176   168   167 1
  177   169   168 1
  178   170   169 1
  179   171   170 1
  180   172   171 1
  181   173   172 1
  182   174   153 1
  183   174   173 1
  184   175   159 1
  185   176   159 1
  186   177   164 1
  187   178   168 1
  188   179   172 1
  189   180   179 1
  190   181   179 1
  191   182   179 1
  192   183   178 1
  193   184   178 1
  194   185   178 1
  195   186   177 1
  196   187   177 1
  197   188   177 1
  198   189   176 1
  199   190   176 1
  200   191   176 1
  201   192   175 1
  202   193   175 1
  203   194   175 1
  204   195   160 1
  205   196   160 1
  206   197   158 1
  207   198   158 1
  208   199   158 1
  209   200   157 1
  210   201   157 1
  211   202   157 1
  212   203   156 1
  213   204   156 1
  214   205   156 1
  215   206   155 1
  216   207   155 1
  217   208   155 1
  218   209   154 1
  219   210   154 1
  220   211   154 1
  221   212   141 1
  222   213   146 1
  223   214   145 1
  224   215   142 1
  225   216   142 1
  226   217   174 1
  227   218   173 1
  228   219   171 1
  229   220   170 1
  230   221   169 1
  231   222   140 1
  232   223   167 1
  233   224   166 1
  234   225   165 1
  235   226   163 1
  236   227   161 1
  237   228   139 1
  238   229   139 1
  239   230   153 1
  240   231   152 1
  241   232   150 1
  242   233   149 1
  243   234   148 1
  244   235   162 1
  245   65    153 1
  246   65    174 1
@<TRIPOS>SUBSTRUCTURE
      1 CLA               1 ****               0 ****  **** 
      2 LUT             138 ****               0 ****  **** 
