@<TRIPOS>MOLECULE
Cpptraj generated mol2 file.
  235   246     2     0     0
SMALL
USER_CHARGES


@<TRIPOS>ATOM
      1 CAA        79.5053   59.0520   33.4771 a2         1 CLA     -0.055900
      2 CAB        79.1627   61.4143   42.9984 c8         1 CLA     -0.148500
      3 CAC        72.1437   57.9160   41.7089 a2         1 CLA     -0.012600
      4 CAD        74.8292   57.3502   34.0112 ck         1 CLA      0.398800
      5 NA         78.3615   58.9871   36.9820 ns         1 CLA     -0.225500
      6 CBA        80.7576   58.7192   32.6510 a2         1 CLA     -0.135000
      7 CBB        80.3760   61.6018   43.6883 c0         1 CLA     -0.395200
      8 CBC        72.0236   56.4308   41.5915 a3         1 CLA     -0.037700
      9 CBD        76.4150   57.5985   33.8976 a1         1 CLA     -0.053900
     10 NB         78.0564   60.1234   39.6627 nm         1 CLA     -0.295700
     11 OBD        74.1973   57.0800   33.0468 o2         1 CLA     -0.494600
     12 CGA        80.9692   57.2797   32.2263 c4         1 CLA      0.827000
     13 CGD        77.1718   56.3336   33.3932 c4         1 CLA      0.655300
     14 ND         75.3731   58.1397   37.3999 nm         1 CLA     -0.291600
     15 CED        76.9938   53.9849   33.2301 a3         1 CLA      0.005400
     16 CHA        76.8663   58.0766   35.2967 cs         1 CLA     -0.123800
     17 CHB        80.0831   60.1496   38.3034 aa         1 CLA     -0.291900
     18 CHC        76.7893   59.9436   41.7980 aa         1 CLA     -0.090400
     19 CHD        73.4691   57.9163   38.8957 aa         1 CLA     -0.052000
     20 CMA        81.8008   58.3413   36.1863 a3         1 CLA     -0.230700
     21 CMB        81.3457   61.8020   40.5621 a3         1 CLA     -0.180800
     22 CMC        74.2280   59.5341   43.6927 a3         1 CLA     -0.134000
     23 CMD        72.0612   57.3077   35.9513 a3         1 CLA     -0.141100
     24 C1         81.7742   55.2028   33.0239 a2         1 CLA      0.023000
     25 C1A        78.1476   58.5836   35.7163 ac         1 CLA     -0.015100
     26 C1B        79.4125   60.4638   39.4745 cr         1 CLA      0.054700
     27 C1C        75.5811   59.3796   41.4302 cn         1 CLA     -0.005600
     28 C1D        74.0601   57.8786   37.5564 ap         1 CLA     -0.047300
     29 O1A        80.7417   56.8050   31.1113 o2         1 CLA     -0.610800
     30 O1D        78.0991   56.3416   32.5727 o2         1 CLA     -0.558200
     31 C2         82.7052   54.6557   34.0567 c8         1 CLA     -0.325100
     32 C2A        79.4806   58.5719   34.8986 a1         1 CLA      0.098600
     33 C2B        80.0063   61.1510   40.5348 cb         1 CLA      0.088500
     34 C2C        74.4403   59.0933   42.2311 cb         1 CLA      0.053700
     35 C2D        73.4675   57.4876   36.3335 cb         1 CLA      0.058900
     36 O2A        81.4347   56.5986   33.3320 o1         1 CLA     -0.437200
     37 O2D        76.5449   55.1910   33.9302 o1         1 CLA     -0.357600
     38 C3         83.6783   53.7165   33.9829 c5         1 CLA      0.031200
     39 C3A        80.5066   59.1780   35.9280 a1         1 CLA      0.166800
     40 C3B        79.0483   61.0430   41.5430 cb         1 CLA      0.035000
     41 C3C        73.5424   58.4727   41.3544 cb         1 CLA     -0.089900
     42 C3D        74.4943   57.4926   35.4220 cb         1 CLA     -0.035900
     43 C4         83.2874   52.2410   34.1783 a3         1 CLA     -0.053300
     44 C4A        79.6657   59.4194   37.2113 ac         1 CLA      0.001800
     45 C4B        77.8558   60.3115   40.9865 cn         1 CLA     -0.020900
     46 C4C        74.1327   58.4231   40.0316 cr         1 CLA     -0.044400
     47 C4D        75.6809   57.9588   36.0830 c6         1 CLA     -0.046000
     48 C5         85.1371   54.0470   33.7348 a2         1 CLA     -0.070400
     49 C6         85.5458   55.4588   34.2350 a2         1 CLA      0.043900
     50 C7         85.4427   55.4922   35.8242 a2         1 CLA     -0.150000
     51 C8         85.5411   56.8570   36.5319 a1         1 CLA      0.064200
     52 C9         86.6215   57.8117   35.9009 a3         1 CLA     -0.259300
     53 C10        85.5143   56.8432   38.0188 a2         1 CLA     -0.071900
     54 C11        85.3912   58.2203   38.7377 a2         1 CLA      0.014500
     55 C12        85.3578   57.9348   40.2087 a2         1 CLA     -0.112100
     56 C13        85.1579   59.0066   41.3116 a1         1 CLA      0.089200
     57 C14        86.3338   59.9865   41.4445 a3         1 CLA     -0.239100
     58 C15        84.7743   58.4100   42.7144 a2         1 CLA     -0.102200
     59 C16        83.3065   57.8762   42.8093 a2         1 CLA      0.023900
     60 C17        83.1726   57.0407   44.0475 a2         1 CLA     -0.105700
     61 C18        83.4697   55.5065   43.8878 a1         1 CLA      0.206800
     62 C19        83.5494   54.8600   45.2617 a3         1 CLA     -0.280100
     63 C20        82.4285   54.7271   43.0081 a3         1 CLA     -0.280100
     64 NC         75.3879   58.9592   40.1352 nx         1 CLA     -0.309200
     65 MG         76.7084   59.1349   38.4862 mg         1 CLA      0.895000
     66 HMD3       72.0322   57.5912   34.8584 dc         1 CLA      0.064300
     67 HMD2       71.8145   56.2654   36.2246 dc         1 CLA      0.064300
     68 HMD1       71.4598   57.9031   36.5918 dc         1 CLA      0.064300
     69 HMC3       74.4183   58.6537   44.3910 dc         1 CLA      0.052100
     70 HMC2       74.9108   60.3059   43.9136 dc         1 CLA      0.052100
     71 HMC1       73.2579   59.9993   43.7993 dc         1 CLA      0.052100
     72 HMB3       81.4942   62.5829   41.2703 dc         1 CLA      0.063600
     73 HMB2       82.1540   61.1668   40.6090 dc         1 CLA      0.063600
     74 HMB1       81.4358   62.3304   39.6016 dc         1 CLA      0.063600
     75 HMA3       81.5027   57.4096   36.7005 dc         1 CLA      0.058300
     76 HMA2       82.1346   58.2648   35.1524 dc         1 CLA      0.058300
     77 HMA1       82.5661   58.8604   36.7532 dc         1 CLA      0.058300
     78 HED3       78.0500   53.6547   33.2370 dc         1 CLA      0.079300
     79 HED2       76.4751   53.1436   33.5808 dc         1 CLA      0.079300
     80 HED1       76.8161   53.9590   32.1189 dc         1 CLA      0.079300
     81 HBC3       72.0807   56.0128   40.5970 dc         1 CLA      0.016300
     82 HBC2       72.7545   55.9765   42.2148 dc         1 CLA      0.016300
     83 HBC1       71.0453   56.1252   41.9576 dc         1 CLA      0.016300
     84 HBB2       80.2919   62.1039   44.6343 da         1 CLA      0.183000
     85 HBB1       81.4600   61.4797   43.3193 da         1 CLA      0.183000
     86 HBA2       80.7632   59.4985   31.7920 dc         1 CLA      0.029400
     87 HBA1       81.5746   58.9361   33.2871 dc         1 CLA      0.029400
     88 HAC2       71.9351   58.1041   42.7990 dc         1 CLA      0.029300
     89 HAC1       71.3895   58.3851   40.9917 dc         1 CLA      0.029300
     90 HAA2       78.7507   58.6615   32.9264 dc         1 CLA      0.028700
     91 HAA1       79.3559   60.1655   33.5611 dc         1 CLA      0.028700
     92 H203       82.6760   53.6950   42.8666 dc         1 CLA      0.065600
     93 H202       81.5000   54.6998   43.5685 dc         1 CLA      0.065600
     94 H201       82.2886   55.2774   42.0556 dc         1 CLA      0.065600
     95 H193       83.4316   53.7993   45.0082 dc         1 CLA      0.065600
     96 H192       84.4762   55.0454   45.7800 dc         1 CLA      0.065600
     97 H191       82.8423   55.1733   46.0704 dc         1 CLA      0.065600
     98 H172       83.7507   57.5255   44.8856 dc         1 CLA      0.027600
     99 H171       82.1211   57.0147   44.4658 dc         1 CLA      0.027600
    100 H162       82.6237   58.7132   42.7955 dc         1 CLA      0.002900
    101 H161       82.9986   57.2962   41.9805 dc         1 CLA      0.002900
    102 H152       85.5875   57.7185   43.0656 dc         1 CLA      0.029100
    103 H151       84.7914   59.2498   43.4950 dc         1 CLA      0.029100
    104 H143       86.6160   60.4783   40.5285 dc         1 CLA      0.063600
    105 H142       86.2756   60.7298   42.2218 dc         1 CLA      0.063600
    106 H141       87.2551   59.4863   41.6203 dc         1 CLA      0.063600
    107 H122       84.6216   57.1821   40.4331 dc         1 CLA      0.032500
    108 H121       86.2440   57.5078   40.5823 dc         1 CLA      0.032500
    109 H112       86.2525   58.8121   38.5098 dc         1 CLA      0.006600
    110 H111       84.5970   58.8727   38.3924 dc         1 CLA      0.006600
    111 H102       84.7319   56.1766   38.2563 dc         1 CLA      0.024100
    112 H101       86.4488   56.4536   38.3473 dc         1 CLA      0.024100
    113 HHD        72.4682   57.6627   39.1194 da         1 CLA      0.174300
    114 HHC        76.8816   60.0531   42.8270 da         1 CLA      0.136800
    115 HHB        81.1876   60.3537   38.4926 da         1 CLA      0.138300
    116 HBD        76.6475   58.3883   33.1689 dc         1 CLA      0.107700
    117 HAB        78.2624   61.5441   43.5276 da         1 CLA      0.155200
    118 H93        86.5052   57.8773   34.8285 dc         1 CLA      0.069500
    119 H92        86.6164   58.8234   36.2428 dc         1 CLA      0.069500
    120 H91        87.6767   57.4218   36.0083 dc         1 CLA      0.069500
    121 H8         84.5744   57.1755   36.3184 dc         1 CLA      0.029300
    122 H72        84.4704   54.9954   36.0281 dc         1 CLA      0.044400
    123 H71        86.2972   54.9075   36.0913 dc         1 CLA      0.044400
    124 H62        86.5137   55.7253   33.9251 dc         1 CLA      0.015600
    125 H61        84.8513   56.1678   33.8566 dc         1 CLA      0.015600
    126 H52        85.6844   53.2447   34.1662 dc         1 CLA      0.033200
    127 H51        85.2660   54.1399   32.6378 dc         1 CLA      0.033200
    128 H43        83.3004   51.5622   33.2971 dc         1 CLA      0.037000
    129 H42        83.9472   51.8535   34.8910 dc         1 CLA      0.037000
    130 H41        82.2868   52.2589   34.6298 dc         1 CLA      0.037000
    131 H3A        80.8388   60.1433   35.5199 dc         1 CLA      0.041100
    132 H2A        79.6294   57.4799   34.9507 dc         1 CLA      0.083100
    133 H2         82.5057   55.1120   35.0008 da         1 CLA      0.180900
    134 H18        84.5111   55.4492   43.4423 dc         1 CLA     -0.003900
    135 H13        84.4129   59.7614   40.9998 dc         1 CLA      0.019700
    136 H12        80.9143   54.5266   33.0574 dc         1 CLA      0.120400
    137 H11        82.2855   55.0807   32.0973 dc         1 CLA      0.120400
    138 C1         68.7823   60.9857   48.8517 Z1         2 LUT      0.509236
    139 C2         68.5527   61.6977   50.1994 Z2         2 LUT     -0.434695
    140 C3         67.2598   62.3931   50.3056 Z3         2 LUT      0.437453
    141 O3         67.2660   63.0757   51.5633 S1         2 LUT     -0.547129
    142 C4         67.0911   63.3649   49.0800 Z4         2 LUT     -0.468603
    143 C5         67.6461   62.8808   47.7376 Z5         2 LUT      0.279246
    144 C6         68.4624   61.8311   47.6332 Z6         2 LUT     -0.305473
    145 C7         69.1702   61.5099   46.4007 Z7         2 LUT      0.069402
    146 C8         69.9814   62.2538   45.6335 Z8         2 LUT     -0.191631
    147 C9         70.5892   61.8045   44.3942 Z9         2 LUT      0.196698
    148 C10        71.7476   62.4025   44.0086 Y1         2 LUT     -0.208611
    149 C11        72.4954   62.2823   42.7756 Y2         2 LUT      0.030784
    150 C12        73.6722   62.9032   42.6764 Y3         2 LUT     -0.220316
    151 C13        74.5467   62.9035   41.5983 Y4         2 LUT      0.215937
    152 C14        75.8707   63.3712   41.8022 Y5         2 LUT     -0.185793
    153 C15        76.9344   63.5604   40.8402 Y6         2 LUT     -0.057835
    154 C16        67.7894   59.7505   48.9168 Y7         2 LUT     -0.405615
    155 C17        70.2218   60.3478   48.9390 Y7         2 LUT     -0.405615
    156 C18        67.1782   63.7859   46.6197 Y9         2 LUT     -0.369639
    157 C19        69.8031   60.8544   43.4920 W1         2 LUT     -0.333362
    158 C20        73.9699   62.6556   40.1754 W2         2 LUT     -0.323439
    159 C21        88.2279   65.6075   34.5679 Z1         2 LUT      0.406104
    160 C22        88.8177   64.9513   33.2893 Z2         2 LUT     -0.404965
    161 C23        88.6467   65.8012   32.0414 Z3         2 LUT      0.391255
    162 O23        89.0596   65.0890   30.8781 S1         2 LUT     -0.528210
    163 C24        87.2893   66.5392   31.9857 W6         2 LUT     -0.258361
    164 C25        86.4482   66.7642   33.0630 Z5         2 LUT      0.133546
    165 C26        86.7743   66.0145   34.4301 W8         2 LUT     -0.147008
    166 C27        86.0940   66.6590   35.6497 Z7         2 LUT      0.023843
    167 C28        84.8218   66.4241   36.0242 Z8         2 LUT     -0.216987
    168 C29        84.2239   66.8436   37.2812 Z9         2 LUT      0.206524
    169 C30        83.1155   66.1312   37.6973 Y1         2 LUT     -0.215556
    170 C31        82.2246   66.3141   38.9158 Y2         2 LUT      0.025142
    171 C32        81.0982   65.5487   39.0008 Y3         2 LUT     -0.212209
    172 C33        80.1678   65.4708   40.1753 Y4         2 LUT      0.240937
    173 C34        79.1325   64.5171   40.1908 Y5         2 LUT     -0.218862
    174 C35        78.0804   64.2729   41.1282 Y6         2 LUT     -0.023547
    175 C36        89.1662   66.8066   34.9581 Y7         2 LUT     -0.393485
    176 C37        88.2303   64.4554   35.6397 Y7         2 LUT     -0.393485
    177 C38        85.1037   67.4963   33.0147 Y9         2 LUT     -0.387526
    178 C39        84.7840   68.0255   37.9780 W1         2 LUT     -0.322618
    179 C40        80.5471   66.2295   41.3986 W2         2 LUT     -0.358472
    180 H403       80.3061   67.3089   41.1446 R7         2 LUT      0.097720
    181 H402       79.9892   65.9494   42.2874 R7         2 LUT      0.097720
    182 H401       81.6571   66.1809   41.5746 R7         2 LUT      0.097720
    183 H393       83.9911   68.6583   38.4328 R4         2 LUT      0.082505
    184 H392       85.7014   67.9145   38.5845 R4         2 LUT      0.082505
    185 H391       85.1435   68.7379   37.2188 R4         2 LUT      0.082505
    186 H383       84.9354   68.0027   32.0290 R1         2 LUT      0.104030
    187 H382       84.3503   66.7354   33.2609 R1         2 LUT      0.104030
    188 H381       85.0615   68.2730   33.8163 R1         2 LUT      0.104030
    189 H373       87.4955   63.7319   35.3001 T4         2 LUT      0.089537
    190 H372       89.2136   63.9746   35.7430 T4         2 LUT      0.089537
    191 H371       87.9209   64.7245   36.6742 T4         2 LUT      0.089537
    192 H363       88.8041   67.1005   35.9317 T4         2 LUT      0.089537
    193 H362       90.2470   66.5917   35.0757 T4         2 LUT      0.089537
    194 H361       89.0483   67.5668   34.2001 T4         2 LUT      0.089537
    195 H222       89.9486   64.9843   33.4992 U2         2 LUT      0.127376
    196 H221       88.4307   64.0404   32.9915 U2         2 LUT      0.127376
    197 H203       74.7003   62.5289   39.4268 R7         2 LUT      0.087068
    198 H202       73.4541   61.6841   40.0691 R7         2 LUT      0.087068
    199 H201       73.3638   63.3896   39.8013 R7         2 LUT      0.087068
    200 H193       70.4926   60.2283   42.9000 R4         2 LUT      0.089716
    201 H192       69.1543   60.1383   43.9279 R4         2 LUT      0.089716
    202 H191       69.1460   61.4913   42.8528 R4         2 LUT      0.089716
    203 H183       67.0412   63.1975   45.7246 R1         2 LUT      0.094572
    204 H182       66.3386   64.3947   46.9306 R1         2 LUT      0.094572
    205 H181       68.0812   64.3996   46.4305 R1         2 LUT      0.094572
    206 H173       70.2641   59.6935   49.7332 T4         2 LUT      0.093752
    207 H172       70.4397   59.7388   48.0570 T4         2 LUT      0.093752
    208 H171       71.0956   61.0494   49.0285 T4         2 LUT      0.093752
    209 H163       67.8732   59.2280   49.8460 T4         2 LUT      0.093752
    210 H162       66.7199   59.9391   48.7118 T4         2 LUT      0.093752
    211 H161       68.0507   59.0235   48.1431 T4         2 LUT      0.093752
    212 HO3        66.8633   62.4536   52.1888 Q1         2 LUT      0.300121
    213 H8         70.1211   63.2397   46.0214 U7         2 LUT      0.080784
    214 H7         69.0487   60.4464   46.0315 U6         2 LUT      0.042190
    215 H42        66.1063   63.8011   48.9649 U5         2 LUT      0.145166
    216 H41        67.6282   64.3005   49.3372 U5         2 LUT      0.145166
    217 H35        78.2539   64.7053   42.0952 T3         2 LUT      0.077919
    218 H34        79.1210   63.8338   39.2943 T2         2 LUT      0.073626
    219 H32        80.8547   64.8867   38.0808 T1         2 LUT      0.092510
    220 H31        82.4995   67.0121   39.6398 U9         2 LUT      0.070048
    221 H30        82.7614   65.2545   37.0541 U8         2 LUT      0.085442
    222 H3         66.4026   61.6976   50.2132 U3         2 LUT     -0.031596
    223 H28        84.2126   65.7956   35.3053 U7         2 LUT      0.084728
    224 H27        86.6307   67.3122   36.3168 U6         2 LUT      0.087291
    225 H26        86.2060   65.1337   34.1218 Q6         2 LUT      0.075325
    226 H24        87.0185   67.0646   31.0830 Q5         2 LUT      0.094482
    227 H23        89.3537   66.6827   32.1097 U3         2 LUT     -0.024869
    228 H22        68.5902   60.9617   51.0348 U2         2 LUT      0.127376
    229 H21        69.3063   62.4918   50.1689 U2         2 LUT      0.127376
    230 H15        76.7710   63.0886   39.8866 T3         2 LUT      0.093200
    231 H14        76.0419   63.7689   42.7841 T2         2 LUT      0.068865
    232 H12        74.1756   63.3762   43.5312 T1         2 LUT      0.095507
    233 H11        71.9982   61.7531   41.9832 U9         2 LUT      0.068930
    234 H10        71.9747   63.2023   44.7619 U8         2 LUT      0.083911
    235 H1         88.7255   65.3986   30.0281 Q1         2 LUT      0.297311
@<TRIPOS>BOND
    1     6     1 1
    2     7     2 1
    3     8     3 1
    4     9     4 1
    5    11     4 1
    6    12     6 1
    7    13     9 1
    8    16     9 1
    9    25     5 1
   10    25    16 1
   11    26    10 1
   12    26    17 1
   13    27    18 1
   14    28    14 1
   15    28    19 1
   16    29    12 1
   17    30    13 1
   18    31    24 1
   19    32     1 1
   20    32    25 1
   21    33    21 1
   22    33    26 1
   23    34    22 1
   24    34    27 1
   25    35    23 1
   26    35    28 1
   27    36    12 1
   28    36    24 1
   29    37    13 1
   30    37    15 1
   31    38    31 1
   32    39    20 1
   33    39    32 1
   34    40     2 1
   35    40    33 1
   36    41     3 1
   37    41    34 1
   38    42     4 1
   39    42    35 1
   40    43    38 1
   41    44     5 1
   42    44    17 1
   43    44    39 1
   44    45    10 1
   45    45    18 1
   46    45    40 1
   47    46    19 1
   48    46    41 1
   49    47    14 1
   50    47    16 1
   51    47    42 1
   52    48    38 1
   53    49    48 1
   54    50    49 1
   55    51    50 1
   56    52    51 1
   57    53    51 1
   58    54    53 1
   59    55    54 1
   60    56    55 1
   61    57    56 1
   62    58    56 1
   63    59    58 1
   64    60    59 1
   65    61    60 1
   66    62    61 1
   67    63    61 1
   68    64    27 1
   69    64    46 1
   70    65     5 1
   71    65    10 1
   72    65    64 1
   73    65    14 1
   74    66    23 1
   75    67    23 1
   76    68    23 1
   77    69    22 1
   78    70    22 1
   79    71    22 1
   80    72    21 1
   81    73    21 1
   82    74    21 1
   83    75    20 1
   84    76    20 1
   85    77    20 1
   86    78    15 1
   87    79    15 1
   88    80    15 1
   89    81     8 1
   90    82     8 1
   91    83     8 1
   92    84     7 1
   93    85     7 1
   94    86     6 1
   95    87     6 1
   96    88     3 1
   97    89     3 1
   98    90     1 1
   99    91     1 1
  100    92    63 1
  101    93    63 1
  102    94    63 1
  103    95    62 1
  104    96    62 1
  105    97    62 1
  106    98    60 1
  107    99    60 1
  108   100    59 1
  109   101    59 1
  110   102    58 1
  111   103    58 1
  112   104    57 1
  113   105    57 1
  114   106    57 1
  115   107    55 1
  116   108    55 1
  117   109    54 1
  118   110    54 1
  119   111    53 1
  120   112    53 1
  121   113    19 1
  122   114    18 1
  123   115    17 1
  124   116     9 1
  125   117     2 1
  126   118    52 1
  127   119    52 1
  128   120    52 1
  129   121    51 1
  130   122    50 1
  131   123    50 1
  132   124    49 1
  133   125    49 1
  134   126    48 1
  135   127    48 1
  136   128    43 1
  137   129    43 1
  138   130    43 1
  139   131    39 1
  140   132    32 1
  141   133    31 1
  142   134    61 1
  143   135    56 1
  144   136    24 1
  145   137    24 1
  146   139   138 1
  147   140   139 1
  148   141   140 1
  149   142   140 1
  150   143   142 1
  151   144   138 1
  152   144   143 1
  153   145   144 1
  154   146   145 1
  155   147   146 1
  156   148   147 1
  157   149   148 1
  158   150   149 1
  159   151   150 1
  160   152   151 1
  161   153   152 1
  162   154   138 1
  163   155   138 1
  164   156   143 1
  165   157   147 1
  166   158   151 1
  167   160   159 1
  168   161   160 1
  169   162   161 1
  170   163   161 1
  171   164   163 1
  172   165   159 1
  173   165   164 1
  174   166   165 1
  175   167   166 1
  176   168   167 1
  177   169   168 1
  178   170   169 1
  179   171   170 1
  180   172   171 1
  181   173   172 1
  182   174   153 1
  183   174   173 1
  184   175   159 1
  185   176   159 1
  186   177   164 1
  187   178   168 1
  188   179   172 1
  189   180   179 1
  190   181   179 1
  191   182   179 1
  192   183   178 1
  193   184   178 1
  194   185   178 1
  195   186   177 1
  196   187   177 1
  197   188   177 1
  198   189   176 1
  199   190   176 1
  200   191   176 1
  201   192   175 1
  202   193   175 1
  203   194   175 1
  204   195   160 1
  205   196   160 1
  206   197   158 1
  207   198   158 1
  208   199   158 1
  209   200   157 1
  210   201   157 1
  211   202   157 1
  212   203   156 1
  213   204   156 1
  214   205   156 1
  215   206   155 1
  216   207   155 1
  217   208   155 1
  218   209   154 1
  219   210   154 1
  220   211   154 1
  221   212   141 1
  222   213   146 1
  223   214   145 1
  224   215   142 1
  225   216   142 1
  226   217   174 1
  227   218   173 1
  228   219   171 1
  229   220   170 1
  230   221   169 1
  231   222   140 1
  232   223   167 1
  233   224   166 1
  234   225   165 1
  235   226   163 1
  236   227   161 1
  237   228   139 1
  238   229   139 1
  239   230   153 1
  240   231   152 1
  241   232   150 1
  242   233   149 1
  243   234   148 1
  244   235   162 1
  245   65    153 1
  246   65    174 1
@<TRIPOS>SUBSTRUCTURE
      1 CLA               1 ****               0 ****  **** 
      2 LUT             138 ****               0 ****  **** 
