@<TRIPOS>MOLECULE
Cpptraj generated mol2 file.
  235   246     2     0     0
SMALL
USER_CHARGES


@<TRIPOS>ATOM
      1 CAA        77.6995   57.9538   34.6290 a2         1 CLA     -0.055900
      2 CAB        77.8102   62.1229   43.4788 c8         1 CLA     -0.148500
      3 CAC        70.9395   57.7309   43.0315 a2         1 CLA     -0.012600
      4 CAD        73.7818   55.3803   35.9173 ck         1 CLA      0.398800
      5 NA         76.7235   58.6464   37.9890 ns         1 CLA     -0.225500
      6 CBA        78.8458   58.1769   33.6826 a2         1 CLA     -0.135000
      7 CBB        76.9585   62.7278   44.3454 c0         1 CLA     -0.395200
      8 CBC        71.1329   56.2979   43.3461 a3         1 CLA     -0.037700
      9 CBD        75.2090   55.9082   35.6128 a1         1 CLA     -0.053900
     10 NB         76.5545   60.2548   40.5339 nm         1 CLA     -0.295700
     11 OBD        73.2898   54.3763   35.3976 o2         1 CLA     -0.494600
     12 CGA        79.5363   56.8382   33.2298 c4         1 CLA      0.827000
     13 CGD        76.1645   54.7453   35.8027 c4         1 CLA      0.655300
     14 ND         73.9610   57.7709   38.5324 nm         1 CLA     -0.291600
     15 CED        77.0706   53.1254   37.3884 a3         1 CLA      0.005400
     16 CHA        75.4796   57.0165   36.7231 cs         1 CLA     -0.123800
     17 CHB        78.4482   60.1198   38.9160 aa         1 CLA     -0.291900
     18 CHC        75.1013   60.5421   42.4905 aa         1 CLA     -0.090400
     19 CHD        72.1693   57.5646   40.1592 aa         1 CLA     -0.052000
     20 CMA        80.1754   57.9988   37.3508 a3         1 CLA     -0.230700
     21 CMB        79.6384   62.3080   40.8623 a3         1 CLA     -0.180800
     22 CMC        72.7986   60.0369   44.4623 a3         1 CLA     -0.134000
     23 CMD        70.9370   55.6026   37.9125 a3         1 CLA     -0.141100
     24 C1         80.7859   54.9262   33.9003 a2         1 CLA      0.023000
     25 C1A        76.6104   57.7985   36.9335 ac         1 CLA     -0.015100
     26 C1B        77.8427   60.6295   40.0818 cr         1 CLA      0.054700
     27 C1C        74.1039   59.7446   42.2062 cn         1 CLA     -0.005600
     28 C1D        72.6664   57.3393   38.8379 ap         1 CLA     -0.047300
     29 O1A        79.7277   56.6545   32.0480 o2         1 CLA     -0.610800
     30 O1D        77.0903   54.5955   34.9921 o2         1 CLA     -0.558200
     31 C2         80.6622   53.9528   35.0044 c8         1 CLA     -0.325100
     32 C2A        77.9033   57.7181   36.1456 a1         1 CLA      0.098600
     33 C2B        78.3475   61.5169   41.1303 cb         1 CLA      0.088500
     34 C2C        72.9930   59.4250   43.1190 cb         1 CLA      0.053700
     35 C2D        72.1672   56.3734   37.8683 cb         1 CLA      0.058900
     36 O2A        79.9819   56.0992   34.2338 o1         1 CLA     -0.437200
     37 O2D        76.0901   54.1830   37.1152 o1         1 CLA     -0.357600
     38 C3         81.5378   53.6231   35.8847 c5         1 CLA      0.031200
     39 C3A        78.8687   58.6910   36.9528 a1         1 CLA      0.166800
     40 C3B        77.4744   61.4824   42.1896 cb         1 CLA      0.035000
     41 C3C        72.1782   58.4729   42.5191 cb         1 CLA     -0.089900
     42 C3D        73.2927   56.2083   37.0249 cb         1 CLA     -0.035900
     43 C4         82.5184   52.4323   35.8598 a3         1 CLA     -0.053300
     44 C4A        77.9263   59.2289   38.0076 ac         1 CLA      0.001800
     45 C4B        76.3256   60.8235   41.7586 cn         1 CLA     -0.020900
     46 C4C        72.7395   58.3146   41.1605 cr         1 CLA     -0.044400
     47 C4D        74.2891   57.0875   37.4228 c6         1 CLA     -0.046000
     48 C5         81.6951   54.4528   37.1567 a2         1 CLA     -0.070400
     49 C6         82.7932   55.5260   37.0949 a2         1 CLA      0.043900
     50 C7         83.1773   56.0825   38.4250 a2         1 CLA     -0.150000
     51 C8         83.8981   57.4832   38.3571 a1         1 CLA      0.064200
     52 C9         85.3192   57.4727   37.7393 a3         1 CLA     -0.259300
     53 C10        84.0207   58.1059   39.8945 a2         1 CLA     -0.071900
     54 C11        82.6910   58.2081   40.7259 a2         1 CLA      0.014500
     55 C12        82.7341   59.1926   41.9300 a2         1 CLA     -0.112100
     56 C13        83.7493   58.8197   43.0923 a1         1 CLA      0.089200
     57 C14        83.2298   57.5646   43.9284 a3         1 CLA     -0.239100
     58 C15        84.0667   59.9892   44.0121 a2         1 CLA     -0.102200
     59 C16        82.8962   60.5421   44.8127 a2         1 CLA      0.023900
     60 C17        83.2109   61.9347   45.3588 a2         1 CLA     -0.105700
     61 C18        82.1500   62.6081   46.3369 a1         1 CLA      0.206800
     62 C19        82.5696   63.9906   46.7973 a3         1 CLA     -0.280100
     63 C20        80.7699   62.6695   45.7489 a3         1 CLA     -0.280100
     64 NC         73.9023   59.0746   41.0056 nx         1 CLA     -0.309200
     65 MG         75.2128   59.0791   39.4255 mg         1 CLA      0.895000
     66 HMD3       70.9106   55.3040   38.9325 dc         1 CLA      0.064300
     67 HMD2       70.0712   56.2606   37.7040 dc         1 CLA      0.064300
     68 HMD1       71.0131   54.7180   37.2252 dc         1 CLA      0.064300
     69 HMC3       72.5522   61.0437   44.4593 dc         1 CLA      0.052100
     70 HMC2       71.9752   59.5382   44.9656 dc         1 CLA      0.052100
     71 HMC1       73.5786   59.8401   45.1818 dc         1 CLA      0.052100
     72 HMB3       80.4342   61.6797   41.2497 dc         1 CLA      0.063600
     73 HMB2       79.7345   62.3692   39.7737 dc         1 CLA      0.063600
     74 HMB1       79.5577   63.3527   41.2190 dc         1 CLA      0.063600
     75 HMA3       80.6177   57.6937   36.3728 dc         1 CLA      0.058300
     76 HMA2       80.8544   58.6425   37.8513 dc         1 CLA      0.058300
     77 HMA1       79.9122   57.1105   37.9305 dc         1 CLA      0.058300
     78 HED3       77.3004   53.1261   38.4272 dc         1 CLA      0.079300
     79 HED2       76.8026   52.1582   36.9025 dc         1 CLA      0.079300
     80 HED1       77.9895   53.4067   36.9599 dc         1 CLA      0.079300
     81 HBC3       71.2539   55.6159   42.5227 dc         1 CLA      0.016300
     82 HBC2       72.0575   56.2877   43.9809 dc         1 CLA      0.016300
     83 HBC1       70.2494   56.1164   44.0138 dc         1 CLA      0.016300
     84 HBB2       77.4327   63.1056   45.2443 da         1 CLA      0.183000
     85 HBB1       75.8498   62.7777   44.1784 da         1 CLA      0.183000
     86 HBA2       78.5251   58.7247   32.8567 dc         1 CLA      0.029400
     87 HBA1       79.6320   58.7318   34.2852 dc         1 CLA      0.029400
     88 HAC2       70.7295   58.0872   44.0307 dc         1 CLA      0.029300
     89 HAC1       70.1514   57.9706   42.3249 dc         1 CLA      0.029300
     90 HAA2       77.1506   57.1413   34.1809 dc         1 CLA      0.028700
     91 HAA1       77.1483   58.8217   34.5715 dc         1 CLA      0.028700
     92 H203       80.2703   63.1393   46.5998 dc         1 CLA      0.065600
     93 H202       80.7514   63.3445   44.8592 dc         1 CLA      0.065600
     94 H201       80.4250   61.6802   45.4246 dc         1 CLA      0.065600
     95 H193       81.9398   64.3586   47.5435 dc         1 CLA      0.065600
     96 H192       83.5633   63.7470   47.2063 dc         1 CLA      0.065600
     97 H191       82.6480   64.7295   46.0172 dc         1 CLA      0.065600
     98 H172       84.2102   61.9300   45.7411 dc         1 CLA      0.027600
     99 H171       83.1556   62.5580   44.4273 dc         1 CLA      0.027600
    100 H162       81.9797   60.5964   44.2198 dc         1 CLA      0.002900
    101 H161       82.6136   59.8847   45.6712 dc         1 CLA      0.002900
    102 H152       84.7755   59.6996   44.7396 dc         1 CLA      0.029100
    103 H151       84.6421   60.6678   43.5511 dc         1 CLA      0.029100
    104 H143       83.8110   57.3780   44.8137 dc         1 CLA      0.063600
    105 H142       82.1842   57.6828   44.2084 dc         1 CLA      0.063600
    106 H141       83.2650   56.7426   43.1455 dc         1 CLA      0.063600
    107 H122       83.0400   60.2258   41.5820 dc         1 CLA      0.032500
    108 H121       81.6897   59.3821   42.2890 dc         1 CLA      0.032500
    109 H112       81.9506   58.4834   39.9647 dc         1 CLA      0.006600
    110 H111       82.5291   57.1489   41.0115 dc         1 CLA      0.006600
    111 H102       84.6965   57.6198   40.5582 dc         1 CLA      0.024100
    112 H101       84.4089   59.1019   39.7959 dc         1 CLA      0.024100
    113 HHD        71.2523   57.0127   40.3369 da         1 CLA      0.174300
    114 HHC        75.1918   61.0121   43.4291 da         1 CLA      0.136800
    115 HHB        79.4981   60.5130   38.8943 da         1 CLA      0.138300
    116 HBD        75.2207   56.3958   34.6522 dc         1 CLA      0.107700
    117 HAB        78.8536   62.0350   43.7859 da         1 CLA      0.155200
    118 H93        85.6524   58.4969   37.5892 dc         1 CLA      0.069500
    119 H92        85.8817   56.8841   38.5043 dc         1 CLA      0.069500
    120 H91        85.3435   56.8327   36.8191 dc         1 CLA      0.069500
    121 H8         83.3029   58.0873   37.7536 dc         1 CLA      0.029300
    122 H72        82.2351   56.1978   39.0011 dc         1 CLA      0.044400
    123 H71        83.8199   55.4199   38.9181 dc         1 CLA      0.044400
    124 H62        83.6507   55.0937   36.5271 dc         1 CLA      0.015600
    125 H61        82.4611   56.3142   36.3746 dc         1 CLA      0.015600
    126 H52        80.7430   54.8789   37.3334 dc         1 CLA      0.033200
    127 H51        82.0060   53.7837   37.9267 dc         1 CLA      0.033200
    128 H43        82.2324   51.7194   36.5431 dc         1 CLA      0.037000
    129 H42        82.4779   51.9269   34.8918 dc         1 CLA      0.037000
    130 H41        83.5130   52.9232   35.9940 dc         1 CLA      0.037000
    131 H3A        79.2532   59.5405   36.3978 dc         1 CLA      0.041100
    132 H2A        78.3536   56.6944   36.3406 dc         1 CLA      0.083100
    133 H2         79.6384   53.5671   35.1674 da         1 CLA      0.180900
    134 H18        82.2867   62.0622   47.2671 dc         1 CLA     -0.003900
    135 H13        84.7162   58.5417   42.6881 dc         1 CLA      0.019700
    136 H12        80.5820   54.5055   32.9687 dc         1 CLA      0.120400
    137 H11        81.8161   55.2628   33.8544 dc         1 CLA      0.120400
    138 C1         67.0554   62.2181   50.5424 Z1         2 LUT      0.509236
    139 C2         66.8451   63.4261   51.5400 Z2         2 LUT     -0.434695
    140 C3         65.5182   64.2810   51.4654 Z3         2 LUT      0.437453
    141 O3         65.6766   65.5545   52.1031 S1         2 LUT     -0.547129
    142 C4         64.9215   64.2710   50.0635 Z4         2 LUT     -0.468603
    143 C5         65.7212   63.6148   48.8989 Z5         2 LUT      0.279246
    144 C6         66.7504   62.6953   49.1215 Z6         2 LUT     -0.305473
    145 C7         67.6963   62.2047   48.1434 Z7         2 LUT      0.069402
    146 C8         68.3654   62.9090   47.1304 Z8         2 LUT     -0.191631
    147 C9         69.0937   62.3963   45.9593 Z9         2 LUT      0.196698
    148 C10        69.8408   63.3131   45.2621 Y1         2 LUT     -0.208611
    149 C11        70.6252   63.1075   44.0792 Y2         2 LUT      0.030784
    150 C12        71.7757   63.8306   43.7215 Y3         2 LUT     -0.220316
    151 C13        72.7042   63.6172   42.6201 Y4         2 LUT      0.215937
    152 C14        73.9345   64.2591   42.5659 Y5         2 LUT     -0.185793
    153 C15        74.9803   64.2783   41.6059 Y6         2 LUT     -0.057835
    154 C16        65.9081   61.2492   51.0123 Y7         2 LUT     -0.405615
    155 C17        68.4287   61.6595   50.7653 Y7         2 LUT     -0.405615
    156 C18        65.4493   64.3226   47.5810 Y9         2 LUT     -0.369639
    157 C19        68.9769   60.9749   45.5741 W1         2 LUT     -0.333362
    158 C20        72.3387   62.6964   41.5027 W2         2 LUT     -0.323439
    159 C21        86.6651   65.2797   35.8827 Z1         2 LUT      0.406104
    160 C22        87.3201   64.6755   34.6498 Z2         2 LUT     -0.404965
    161 C23        87.5109   65.5867   33.4674 Z3         2 LUT      0.391255
    162 O23        88.1906   64.9417   32.4155 S1         2 LUT     -0.528210
    163 C24        86.1978   66.2736   33.1376 W6         2 LUT     -0.258361
    164 C25        85.1797   66.4063   33.9969 Z5         2 LUT      0.133546
    165 C26        85.2534   65.7359   35.3921 W8         2 LUT     -0.147008
    166 C27        84.6088   66.4758   36.4613 Z7         2 LUT      0.023843
    167 C28        83.5456   65.9981   37.1335 Z8         2 LUT     -0.216987
    168 C29        82.6177   66.5916   38.0917 Z9         2 LUT      0.206524
    169 C30        81.5214   65.9374   38.5090 Y1         2 LUT     -0.215556
    170 C31        80.5339   66.2881   39.5846 Y2         2 LUT      0.025142
    171 C32        79.3268   65.6285   39.8012 Y3         2 LUT     -0.212209
    172 C33        78.2629   65.8810   40.7722 Y4         2 LUT      0.240937
    173 C34        77.1037   65.0515   40.7211 Y5         2 LUT     -0.218862
    174 C35        76.0579   65.0642   41.7527 Y6         2 LUT     -0.023547
    175 C36        87.5924   66.4892   36.3223 Y7         2 LUT     -0.393485
    176 C37        86.6555   64.1979   37.0089 Y7         2 LUT     -0.393485
    177 C38        83.9477   67.2527   33.4554 Y9         2 LUT     -0.387526
    178 C39        82.8923   67.9936   38.5190 W1         2 LUT     -0.322618
    179 C40        78.4933   66.9316   41.7740 W2         2 LUT     -0.358472
    180 H403       79.2817   66.6432   42.4246 R7         2 LUT      0.097720
    181 H402       78.7689   67.8199   41.1860 R7         2 LUT      0.097720
    182 H401       77.6728   67.2046   42.3638 R7         2 LUT      0.097720
    183 H393       83.4265   68.5357   37.6275 R4         2 LUT      0.082505
    184 H392       82.0313   68.5470   38.8130 R4         2 LUT      0.082505
    185 H391       83.6535   68.0150   39.2999 R4         2 LUT      0.082505
    186 H383       83.3296   67.6588   34.2870 R1         2 LUT      0.104030
    187 H382       84.3017   68.0487   32.7607 R1         2 LUT      0.104030
    188 H381       83.3604   66.5851   32.8046 R1         2 LUT      0.104030
    189 H373       86.2070   64.6371   37.9613 T4         2 LUT      0.089537
    190 H372       86.1402   63.3027   36.6012 T4         2 LUT      0.089537
    191 H371       87.6919   63.9066   37.2461 T4         2 LUT      0.089537
    192 H363       87.3926   67.4088   35.7704 T4         2 LUT      0.089537
    193 H362       87.4585   66.6286   37.4471 T4         2 LUT      0.089537
    194 H361       88.6077   66.1373   36.1667 T4         2 LUT      0.089537
    195 H222       88.2753   64.3429   35.0800 U2         2 LUT      0.127376
    196 H221       86.8372   63.7686   34.2060 U2         2 LUT      0.127376
    197 H203       71.7295   62.9766   40.6690 R7         2 LUT      0.087068
    198 H202       73.3111   62.2362   41.2043 R7         2 LUT      0.087068
    199 H201       71.8993   61.8215   41.9875 R7         2 LUT      0.087068
    200 H193       68.8969   60.8714   44.4822 R4         2 LUT      0.089716
    201 H192       69.8234   60.3525   45.8152 R4         2 LUT      0.089716
    202 H191       68.2049   60.4587   46.1032 R4         2 LUT      0.089716
    203 H183       66.1588   65.1902   47.4114 R1         2 LUT      0.094572
    204 H182       65.5995   63.5584   46.8284 R1         2 LUT      0.094572
    205 H181       64.4398   64.5724   47.5939 R1         2 LUT      0.094572
    206 H173       68.7638   60.7633   50.2084 T4         2 LUT      0.093752
    207 H172       69.1972   62.3862   50.5953 T4         2 LUT      0.093752
    208 H171       68.5577   61.3192   51.8317 T4         2 LUT      0.093752
    209 H163       65.9412   60.3799   50.4528 T4         2 LUT      0.093752
    210 H162       65.9448   61.0438   52.0978 T4         2 LUT      0.093752
    211 H161       64.9125   61.7257   50.8687 T4         2 LUT      0.093752
    212 HO3        64.7936   65.8659   52.3376 Q1         2 LUT      0.300121
    213 H8         68.1438   63.9807   47.1809 U7         2 LUT      0.080784
    214 H7         67.6848   61.1915   48.1480 U6         2 LUT      0.042190
    215 H42        63.8925   64.0247   50.2423 U5         2 LUT      0.145166
    216 H41        64.5209   65.2207   49.7565 U5         2 LUT      0.145166
    217 H35        76.0183   65.7004   42.6664 T3         2 LUT      0.077919
    218 H34        77.2383   64.1468   40.1817 T2         2 LUT      0.073626
    219 H32        79.2479   64.7067   39.2657 T1         2 LUT      0.092510
    220 H31        80.6182   67.1742   40.1888 U9         2 LUT      0.070048
    221 H30        81.3649   64.9608   38.0567 U8         2 LUT      0.085442
    222 H3         64.8361   63.6943   52.0592 U3         2 LUT     -0.031596
    223 H28        83.2219   64.9830   36.9098 U7         2 LUT      0.084728
    224 H27        84.9876   67.4696   36.7655 U6         2 LUT      0.087291
    225 H26        84.6183   64.8463   35.2733 Q6         2 LUT      0.075325
    226 H24        86.2385   66.6870   32.1382 Q5         2 LUT      0.094482
    227 H23        88.2961   66.3038   33.8222 U3         2 LUT     -0.024869
    228 H22        66.8174   63.0381   52.5943 U2         2 LUT      0.127376
    229 H21        67.7102   64.1299   51.4358 U2         2 LUT      0.127376
    230 H15        74.8654   63.7082   40.7187 T3         2 LUT      0.093200
    231 H14        74.1874   64.8235   43.4455 T2         2 LUT      0.068865
    232 H12        71.9900   64.6374   44.3950 T1         2 LUT      0.095507
    233 H11        70.3568   62.2849   43.4187 U9         2 LUT      0.068930
    234 H10        69.9774   64.2642   45.6493 U8         2 LUT      0.083911
    235 H1         87.6944   64.2431   31.9474 Q1         2 LUT      0.297311
@<TRIPOS>BOND
    1     6     1 1
    2     7     2 1
    3     8     3 1
    4     9     4 1
    5    11     4 1
    6    12     6 1
    7    13     9 1
    8    16     9 1
    9    25     5 1
   10    25    16 1
   11    26    10 1
   12    26    17 1
   13    27    18 1
   14    28    14 1
   15    28    19 1
   16    29    12 1
   17    30    13 1
   18    31    24 1
   19    32     1 1
   20    32    25 1
   21    33    21 1
   22    33    26 1
   23    34    22 1
   24    34    27 1
   25    35    23 1
   26    35    28 1
   27    36    12 1
   28    36    24 1
   29    37    13 1
   30    37    15 1
   31    38    31 1
   32    39    20 1
   33    39    32 1
   34    40     2 1
   35    40    33 1
   36    41     3 1
   37    41    34 1
   38    42     4 1
   39    42    35 1
   40    43    38 1
   41    44     5 1
   42    44    17 1
   43    44    39 1
   44    45    10 1
   45    45    18 1
   46    45    40 1
   47    46    19 1
   48    46    41 1
   49    47    14 1
   50    47    16 1
   51    47    42 1
   52    48    38 1
   53    49    48 1
   54    50    49 1
   55    51    50 1
   56    52    51 1
   57    53    51 1
   58    54    53 1
   59    55    54 1
   60    56    55 1
   61    57    56 1
   62    58    56 1
   63    59    58 1
   64    60    59 1
   65    61    60 1
   66    62    61 1
   67    63    61 1
   68    64    27 1
   69    64    46 1
   70    65     5 1
   71    65    10 1
   72    65    64 1
   73    65    14 1
   74    66    23 1
   75    67    23 1
   76    68    23 1
   77    69    22 1
   78    70    22 1
   79    71    22 1
   80    72    21 1
   81    73    21 1
   82    74    21 1
   83    75    20 1
   84    76    20 1
   85    77    20 1
   86    78    15 1
   87    79    15 1
   88    80    15 1
   89    81     8 1
   90    82     8 1
   91    83     8 1
   92    84     7 1
   93    85     7 1
   94    86     6 1
   95    87     6 1
   96    88     3 1
   97    89     3 1
   98    90     1 1
   99    91     1 1
  100    92    63 1
  101    93    63 1
  102    94    63 1
  103    95    62 1
  104    96    62 1
  105    97    62 1
  106    98    60 1
  107    99    60 1
  108   100    59 1
  109   101    59 1
  110   102    58 1
  111   103    58 1
  112   104    57 1
  113   105    57 1
  114   106    57 1
  115   107    55 1
  116   108    55 1
  117   109    54 1
  118   110    54 1
  119   111    53 1
  120   112    53 1
  121   113    19 1
  122   114    18 1
  123   115    17 1
  124   116     9 1
  125   117     2 1
  126   118    52 1
  127   119    52 1
  128   120    52 1
  129   121    51 1
  130   122    50 1
  131   123    50 1
  132   124    49 1
  133   125    49 1
  134   126    48 1
  135   127    48 1
  136   128    43 1
  137   129    43 1
  138   130    43 1
  139   131    39 1
  140   132    32 1
  141   133    31 1
  142   134    61 1
  143   135    56 1
  144   136    24 1
  145   137    24 1
  146   139   138 1
  147   140   139 1
  148   141   140 1
  149   142   140 1
  150   143   142 1
  151   144   138 1
  152   144   143 1
  153   145   144 1
  154   146   145 1
  155   147   146 1
  156   148   147 1
  157   149   148 1
  158   150   149 1
  159   151   150 1
  160   152   151 1
  161   153   152 1
  162   154   138 1
  163   155   138 1
  164   156   143 1
  165   157   147 1
  166   158   151 1
  167   160   159 1
  168   161   160 1
  169   162   161 1
  170   163   161 1
  171   164   163 1
  172   165   159 1
  173   165   164 1
  174   166   165 1
  175   167   166 1
  176   168   167 1
  177   169   168 1
  178   170   169 1
  179   171   170 1
  180   172   171 1
  181   173   172 1
  182   174   153 1
  183   174   173 1
  184   175   159 1
  185   176   159 1
  186   177   164 1
  187   178   168 1
  188   179   172 1
  189   180   179 1
  190   181   179 1
  191   182   179 1
  192   183   178 1
  193   184   178 1
  194   185   178 1
  195   186   177 1
  196   187   177 1
  197   188   177 1
  198   189   176 1
  199   190   176 1
  200   191   176 1
  201   192   175 1
  202   193   175 1
  203   194   175 1
  204   195   160 1
  205   196   160 1
  206   197   158 1
  207   198   158 1
  208   199   158 1
  209   200   157 1
  210   201   157 1
  211   202   157 1
  212   203   156 1
  213   204   156 1
  214   205   156 1
  215   206   155 1
  216   207   155 1
  217   208   155 1
  218   209   154 1
  219   210   154 1
  220   211   154 1
  221   212   141 1
  222   213   146 1
  223   214   145 1
  224   215   142 1
  225   216   142 1
  226   217   174 1
  227   218   173 1
  228   219   171 1
  229   220   170 1
  230   221   169 1
  231   222   140 1
  232   223   167 1
  233   224   166 1
  234   225   165 1
  235   226   163 1
  236   227   161 1
  237   228   139 1
  238   229   139 1
  239   230   153 1
  240   231   152 1
  241   232   150 1
  242   233   149 1
  243   234   148 1
  244   235   162 1
  245   65    153 1
  246   65    174 1
@<TRIPOS>SUBSTRUCTURE
      1 CLA               1 ****               0 ****  **** 
      2 LUT             138 ****               0 ****  **** 
