@<TRIPOS>MOLECULE
Cpptraj generated mol2 file.
  235   246     2     0     0
SMALL
USER_CHARGES


@<TRIPOS>ATOM
      1 CAA        78.7052   56.8059   35.0254 a2         1 CLA     -0.055900
      2 CAB        78.8287   60.6676   43.9945 c8         1 CLA     -0.148500
      3 CAC        71.7854   57.0303   43.5327 a2         1 CLA     -0.012600
      4 CAD        74.4816   54.0734   36.5010 ck         1 CLA      0.398800
      5 NA         77.6799   57.3202   38.4081 ns         1 CLA     -0.225500
      6 CBA        80.0521   56.6251   34.2718 a2         1 CLA     -0.135000
      7 CBB        80.0223   61.0471   44.4749 c0         1 CLA     -0.395200
      8 CBC        71.8211   56.0572   44.7786 a3         1 CLA     -0.037700
      9 CBD        75.9746   54.6743   36.0776 a1         1 CLA     -0.053900
     10 NB         77.5186   58.9946   40.9357 nm         1 CLA     -0.295700
     11 OBD        73.7725   53.3109   35.9134 o2         1 CLA     -0.494600
     12 CGA        80.4030   55.1449   34.0456 c4         1 CLA      0.827000
     13 CGD        76.9598   53.5510   35.8488 c4         1 CLA      0.655300
     14 ND         74.9461   56.3494   39.0971 nm         1 CLA     -0.291600
     15 CED        77.7189   51.4571   36.6938 a3         1 CLA      0.005400
     16 CHA        76.3432   55.6586   37.1687 cs         1 CLA     -0.123800
     17 CHB        79.2619   58.9543   39.2082 aa         1 CLA     -0.291900
     18 CHC        76.3260   59.2145   43.0371 aa         1 CLA     -0.090400
     19 CHD        73.1362   56.3356   40.7449 aa         1 CLA     -0.052000
     20 CMA        80.9396   56.9277   37.8063 a3         1 CLA     -0.230700
     21 CMB        80.7201   60.8209   41.0192 a3         1 CLA     -0.180800
     22 CMC        73.9164   58.9840   45.1088 a3         1 CLA     -0.134000
     23 CMD        71.9065   54.1696   38.7537 a3         1 CLA     -0.141100
     24 C1         81.0553   53.2246   35.2741 a2         1 CLA      0.023000
     25 C1A        77.5405   56.4394   37.4120 ac         1 CLA     -0.015100
     26 C1B        78.7151   59.4058   40.3721 cr         1 CLA      0.054700
     27 C1C        75.1155   58.5795   42.7466 cn         1 CLA     -0.005600
     28 C1D        73.7409   55.8551   39.5893 ap         1 CLA     -0.047300
     29 O1A        80.2264   54.4591   33.0655 o2         1 CLA     -0.610800
     30 O1D        77.8362   53.5520   35.0262 o2         1 CLA     -0.558200
     31 C2         81.5513   52.8214   36.6014 c8         1 CLA     -0.325100
     32 C2A        78.8209   56.4618   36.5915 a1         1 CLA      0.098600
     33 C2B        79.4279   60.1273   41.3698 cb         1 CLA      0.088500
     34 C2C        73.9984   58.4129   43.7573 cb         1 CLA      0.053700
     35 C2D        73.1815   54.8933   38.6513 cb         1 CLA      0.058900
     36 O2A        80.9300   54.6730   35.2300 o1         1 CLA     -0.437200
     37 O2D        76.8516   52.6470   36.8364 o1         1 CLA     -0.357600
     38 C3         82.8364   52.6712   37.0118 c5         1 CLA      0.031200
     39 C3A        79.6994   57.5260   37.2374 a1         1 CLA      0.166800
     40 C3B        78.6396   60.1041   42.6067 cb         1 CLA      0.035000
     41 C3C        73.1161   57.5046   43.0641 cb         1 CLA     -0.089900
     42 C3D        74.1940   54.8153   37.6734 cb         1 CLA     -0.035900
     43 C4         83.4085   51.3333   36.8311 a3         1 CLA     -0.053300
     44 C4A        78.8196   58.0086   38.3107 ac         1 CLA      0.001800
     45 C4B        77.4295   59.3835   42.2516 cn         1 CLA     -0.020900
     46 C4C        73.6859   57.1950   41.7759 cr         1 CLA     -0.044400
     47 C4D        75.2658   55.6564   38.0045 c6         1 CLA     -0.046000
     48 C5         83.6010   53.7342   37.7267 a2         1 CLA     -0.070400
     49 C6         83.2214   54.1224   39.1557 a2         1 CLA      0.043900
     50 C7         84.3302   54.9851   39.8879 a2         1 CLA     -0.150000
     51 C8         84.3764   56.5308   39.5151 a1         1 CLA      0.064200
     52 C9         85.4770   56.8466   38.4115 a3         1 CLA     -0.259300
     53 C10        84.6267   57.5007   40.7905 a2         1 CLA     -0.071900
     54 C11        83.4356   57.6375   41.7861 a2         1 CLA      0.014500
     55 C12        83.6747   58.6765   42.8760 a2         1 CLA     -0.112100
     56 C13        84.6908   58.3405   43.9940 a1         1 CLA      0.089200
     57 C14        84.2694   57.1468   44.9312 a3         1 CLA     -0.239100
     58 C15        85.1506   59.5838   44.8773 a2         1 CLA     -0.102200
     59 C16        84.0171   60.4070   45.5480 a2         1 CLA      0.023900
     60 C17        84.5516   61.4814   46.4969 a2         1 CLA     -0.105700
     61 C18        83.4907   62.4699   46.9906 a1         1 CLA      0.206800
     62 C19        82.3260   61.6555   47.6634 a3         1 CLA     -0.280100
     63 C20        84.0204   63.5307   48.0505 a3         1 CLA     -0.280100
     64 NC         74.8813   57.8434   41.6004 nx         1 CLA     -0.309200
     65 MG         76.2055   57.7140   40.0065 mg         1 CLA      0.895000
     66 HMD3       71.1252   54.8070   39.1527 dc         1 CLA      0.064300
     67 HMD2       71.6559   53.8802   37.7558 dc         1 CLA      0.064300
     68 HMD1       72.0389   53.2399   39.2916 dc         1 CLA      0.064300
     69 HMC3       74.4698   59.9227   45.0829 dc         1 CLA      0.052100
     70 HMC2       72.9524   59.3409   45.3308 dc         1 CLA      0.052100
     71 HMC1       74.3364   58.2587   45.8884 dc         1 CLA      0.052100
     72 HMB3       80.7995   61.0973   39.9919 dc         1 CLA      0.063600
     73 HMB2       80.8459   61.6533   41.6638 dc         1 CLA      0.063600
     74 HMB1       81.5811   60.2146   41.1801 dc         1 CLA      0.063600
     75 HMA3       81.5545   57.7151   38.1441 dc         1 CLA      0.058300
     76 HMA2       80.6085   56.1748   38.5541 dc         1 CLA      0.058300
     77 HMA1       81.5025   56.3449   37.1226 dc         1 CLA      0.058300
     78 HED3       77.3830   51.0018   35.7454 dc         1 CLA      0.079300
     79 HED2       78.8181   51.6887   36.7805 dc         1 CLA      0.079300
     80 HED1       77.4257   50.7029   37.4219 dc         1 CLA      0.079300
     81 HBC3       70.7786   55.9163   45.1110 dc         1 CLA      0.016300
     82 HBC2       72.3467   55.1023   44.5514 dc         1 CLA      0.016300
     83 HBC1       72.4160   56.5560   45.5778 dc         1 CLA      0.016300
     84 HBB2       80.1413   61.4932   45.4647 da         1 CLA      0.183000
     85 HBB1       80.9152   60.8997   43.8613 da         1 CLA      0.183000
     86 HBA2       79.9792   57.0857   33.2579 dc         1 CLA      0.029400
     87 HBA1       80.8585   57.1087   34.8470 dc         1 CLA      0.029400
     88 HAC2       71.1754   57.8569   43.7960 dc         1 CLA      0.029300
     89 HAC1       71.3052   56.5175   42.7360 dc         1 CLA      0.029300
     90 HAA2       77.7995   56.3532   34.5672 dc         1 CLA      0.028700
     91 HAA1       78.5349   57.8787   34.9134 dc         1 CLA      0.028700
     92 H203       84.3502   62.8595   48.8632 dc         1 CLA      0.065600
     93 H202       84.8264   64.1456   47.6459 dc         1 CLA      0.065600
     94 H201       83.2289   64.1340   48.4429 dc         1 CLA      0.065600
     95 H193       81.8240   60.9000   46.9854 dc         1 CLA      0.065600
     96 H192       82.8297   61.1442   48.5611 dc         1 CLA      0.065600
     97 H191       81.5428   62.2383   48.0532 dc         1 CLA      0.065600
     98 H172       85.0103   61.0279   47.3993 dc         1 CLA      0.027600
     99 H171       85.2860   62.1060   46.0305 dc         1 CLA      0.027600
    100 H162       83.4218   60.9860   44.8666 dc         1 CLA      0.002900
    101 H161       83.3995   59.7556   46.0752 dc         1 CLA      0.002900
    102 H152       85.8708   59.1225   45.6010 dc         1 CLA      0.029100
    103 H151       85.7221   60.3039   44.2119 dc         1 CLA      0.029100
    104 H143       84.9835   56.6777   45.5930 dc         1 CLA      0.063600
    105 H142       83.3304   57.3603   45.4071 dc         1 CLA      0.063600
    106 H141       84.0070   56.3071   44.2632 dc         1 CLA      0.063600
    107 H122       84.0141   59.6263   42.4733 dc         1 CLA      0.032500
    108 H121       82.7312   58.8383   43.4055 dc         1 CLA      0.032500
    109 H112       82.6060   57.9760   41.2213 dc         1 CLA      0.006600
    110 H111       83.0495   56.6836   42.2409 dc         1 CLA      0.006600
    111 H102       85.4585   57.0992   41.3904 dc         1 CLA      0.024100
    112 H101       84.6848   58.4911   40.3863 dc         1 CLA      0.024100
    113 HHD        72.2180   55.7347   40.9410 da         1 CLA      0.174300
    114 HHC        76.4614   59.5232   44.1190 da         1 CLA      0.136800
    115 HHB        80.2183   59.3571   38.9329 da         1 CLA      0.138300
    116 HBD        75.8525   55.1638   35.1088 dc         1 CLA      0.107700
    117 HAB        77.9333   60.8044   44.6132 da         1 CLA      0.155200
    118 H93        86.4691   56.6190   38.8540 dc         1 CLA      0.069500
    119 H92        85.3257   56.0383   37.6699 dc         1 CLA      0.069500
    120 H91        85.3737   57.8470   37.9149 dc         1 CLA      0.069500
    121 H8         83.3842   56.7744   39.1251 dc         1 CLA      0.029300
    122 H72        83.9247   54.9410   40.9275 dc         1 CLA      0.044400
    123 H71        85.2789   54.4755   39.8726 dc         1 CLA      0.044400
    124 H62        82.1556   54.5200   39.3295 dc         1 CLA      0.015600
    125 H61        83.2757   53.1446   39.4993 dc         1 CLA      0.015600
    126 H52        84.6759   53.4495   37.7163 dc         1 CLA      0.033200
    127 H51        83.3960   54.7025   37.3192 dc         1 CLA      0.033200
    128 H43        82.8538   50.7770   36.0493 dc         1 CLA      0.037000
    129 H42        84.4428   51.5485   36.4633 dc         1 CLA      0.037000
    130 H41        83.5895   50.8591   37.7820 dc         1 CLA      0.037000
    131 H3A        79.9554   58.3552   36.5986 dc         1 CLA      0.041100
    132 H2A        79.3357   55.5167   36.8314 dc         1 CLA      0.083100
    133 H2         80.8558   52.5077   37.3056 da         1 CLA      0.180900
    134 H18        83.1213   62.9989   46.0890 dc         1 CLA     -0.003900
    135 H13        85.5664   58.1038   43.4139 dc         1 CLA      0.019700
    136 H12        80.1154   52.7096   35.0293 dc         1 CLA      0.120400
    137 H11        81.8387   52.9923   34.5665 dc         1 CLA      0.120400
    138 C1         68.2366   60.7140   50.9964 Z1         2 LUT      0.509236
    139 C2         66.9629   60.4045   51.6604 Z2         2 LUT     -0.434695
    140 C3         65.9236   61.5454   51.7543 Z3         2 LUT      0.437453
    141 O3         65.6264   61.8889   53.1301 S1         2 LUT     -0.547129
    142 C4         66.1946   62.7565   50.8785 Z4         2 LUT     -0.468603
    143 C5         66.8679   62.3998   49.6750 Z5         2 LUT      0.279246
    144 C6         67.9391   61.5315   49.6886 Z6         2 LUT     -0.305473
    145 C7         68.4886   61.0743   48.3778 Z7         2 LUT      0.069402
    146 C8         69.2824   61.7608   47.5236 Z8         2 LUT     -0.191631
    147 C9         69.6999   61.3041   46.2013 Z9         2 LUT      0.196698
    148 C10        70.6986   62.0378   45.6307 Y1         2 LUT     -0.208611
    149 C11        71.4619   61.6009   44.4736 Y2         2 LUT      0.030784
    150 C12        72.6552   62.0918   44.0721 Y3         2 LUT     -0.220316
    151 C13        73.4649   61.8399   42.9186 Y4         2 LUT      0.215937
    152 C14        74.6859   62.5548   42.6372 Y5         2 LUT     -0.185793
    153 C15        75.7089   62.4169   41.6057 Y6         2 LUT     -0.057835
    154 C16        68.9604   59.3925   50.7896 Y7         2 LUT     -0.405615
    155 C17        69.0199   61.5215   52.1466 Y7         2 LUT     -0.405615
    156 C18        66.1928   63.0861   48.5110 Y9         2 LUT     -0.369639
    157 C19        69.0200   60.1206   45.5328 W1         2 LUT     -0.333362
    158 C20        72.9539   61.0087   41.7151 W2         2 LUT     -0.323439
    159 C21        87.1495   64.1433   35.4804 Z1         2 LUT      0.406104
    160 C22        87.9445   63.5412   34.2866 Z2         2 LUT     -0.404965
    161 C23        88.0961   64.5253   33.1261 Z3         2 LUT      0.391255
    162 O23        88.9703   63.8099   32.2139 S1         2 LUT     -0.528210
    163 C24        86.8061   65.2278   32.8063 W6         2 LUT     -0.258361
    164 C25        85.7511   65.3774   33.6503 Z5         2 LUT      0.133546
    165 C26        85.6917   64.5730   34.9685 W8         2 LUT     -0.147008
    166 C27        84.8792   65.4457   36.0531 Z7         2 LUT      0.023843
    167 C28        83.7073   64.9256   36.6754 Z8         2 LUT     -0.216987
    168 C29        83.0347   65.3877   37.8571 Z9         2 LUT      0.206524
    169 C30        81.9280   64.6839   38.2803 Y1         2 LUT     -0.215556
    170 C31        81.0809   64.7852   39.4479 Y2         2 LUT      0.025142
    171 C32        79.9895   63.9773   39.7484 Y3         2 LUT     -0.212209
    172 C33        79.1836   63.9420   41.0104 Y4         2 LUT      0.240937
    173 C34        78.0233   63.0561   40.9064 Y5         2 LUT     -0.218862
    174 C35        76.8900   63.1105   41.8226 Y6         2 LUT     -0.023547
    175 C36        88.0254   65.2529   36.1909 Y7         2 LUT     -0.393485
    176 C37        86.9055   63.0977   36.6363 Y7         2 LUT     -0.393485
    177 C38        84.5720   66.0443   33.0335 Y9         2 LUT     -0.387526
    178 C39        83.7031   66.5407   38.5712 W1         2 LUT     -0.322618
    179 C40        79.4762   64.8012   42.1669 W2         2 LUT     -0.358472
    180 H403       80.3072   64.3612   42.7065 R7         2 LUT      0.097720
    181 H402       79.6781   65.8003   41.8887 R7         2 LUT      0.097720
    182 H401       78.6560   64.7362   42.8356 R7         2 LUT      0.097720
    183 H393       84.5893   66.1782   39.0473 R4         2 LUT      0.082505
    184 H392       83.9051   67.3583   37.8996 R4         2 LUT      0.082505
    185 H391       83.0638   67.1443   39.2946 R4         2 LUT      0.082505
    186 H383       83.6483   65.4797   32.9923 R1         2 LUT      0.104030
    187 H382       84.4252   66.9632   33.5286 R1         2 LUT      0.104030
    188 H381       84.7472   66.3469   31.9664 R1         2 LUT      0.104030
    189 H373       87.7807   62.7592   37.1216 T4         2 LUT      0.089537
    190 H372       86.2914   63.5371   37.4442 T4         2 LUT      0.089537
    191 H371       86.4884   62.2294   36.1864 T4         2 LUT      0.089537
    192 H363       88.0894   66.1032   35.5327 T4         2 LUT      0.089537
    193 H362       87.5621   65.6880   37.0436 T4         2 LUT      0.089537
    194 H361       88.9963   64.7861   36.3783 T4         2 LUT      0.089537
    195 H222       88.9389   63.3021   34.6956 U2         2 LUT      0.127376
    196 H221       87.5227   62.6248   33.8871 U2         2 LUT      0.127376
    197 H203       73.8114   60.5792   41.2670 R7         2 LUT      0.087068
    198 H202       72.4117   60.1794   42.1218 R7         2 LUT      0.087068
    199 H201       72.2743   61.5703   41.0817 R7         2 LUT      0.087068
    200 H193       67.9233   60.1788   45.5159 R4         2 LUT      0.089716
    201 H192       69.3534   59.9321   44.5733 R4         2 LUT      0.089716
    202 H191       69.0805   59.1436   46.0102 R4         2 LUT      0.089716
    203 H183       66.7216   64.0005   48.2688 R1         2 LUT      0.094572
    204 H182       66.2710   62.4328   47.7038 R1         2 LUT      0.094572
    205 H181       65.1028   63.2844   48.7310 R1         2 LUT      0.094572
    206 H173       69.9737   61.6739   51.7522 T4         2 LUT      0.093752
    207 H172       68.5245   62.4214   52.2595 T4         2 LUT      0.093752
    208 H171       69.1796   60.8944   53.0570 T4         2 LUT      0.093752
    209 H163       68.9711   58.8408   51.7289 T4         2 LUT      0.093752
    210 H162       68.3997   58.7523   50.0277 T4         2 LUT      0.093752
    211 H161       70.0016   59.6110   50.4353 T4         2 LUT      0.093752
    212 HO3        66.3676   62.2836   53.5785 Q1         2 LUT      0.300121
    213 H8         69.7615   62.6593   47.8841 U7         2 LUT      0.080784
    214 H7         68.0935   60.1504   48.0790 U6         2 LUT      0.042190
    215 H42        65.2386   63.2995   50.6977 U5         2 LUT      0.145166
    216 H41        66.7746   63.5979   51.3962 U5         2 LUT      0.145166
    217 H35        77.1322   63.6692   42.7369 T3         2 LUT      0.077919
    218 H34        77.9917   62.4599   40.0455 T2         2 LUT      0.073626
    219 H32        79.7133   63.3144   38.9160 T1         2 LUT      0.092510
    220 H31        81.3943   65.4012   40.2831 U9         2 LUT      0.070048
    221 H30        81.5135   63.9636   37.5402 U8         2 LUT      0.085442
    222 H3         65.0362   61.0491   51.4121 U3         2 LUT     -0.031596
    223 H28        83.1829   64.1519   36.1317 U7         2 LUT      0.084728
    224 H27        85.4206   66.3149   36.4915 U6         2 LUT      0.087291
    225 H26        85.0804   63.6960   34.6969 Q6         2 LUT      0.075325
    226 H24        86.8827   65.6224   31.7579 Q5         2 LUT      0.094482
    227 H23        88.6150   65.3365   33.5975 U3         2 LUT     -0.024869
    228 H22        66.5952   59.5148   51.1650 U2         2 LUT      0.127376
    229 H21        67.0328   60.0512   52.6450 U2         2 LUT      0.127376
    230 H15        75.4541   61.8863   40.6858 T3         2 LUT      0.093200
    231 H14        75.0478   63.2933   43.4031 T2         2 LUT      0.068865
    232 H12        73.1216   62.8422   44.6724 T1         2 LUT      0.095507
    233 H11        71.0225   60.8197   43.9041 U9         2 LUT      0.068930
    234 H10        71.1907   62.8739   46.1480 U8         2 LUT      0.083911
    235 H1         88.4786   63.3453   31.4834 Q1         2 LUT      0.297311
@<TRIPOS>BOND
    1     6     1 1
    2     7     2 1
    3     8     3 1
    4     9     4 1
    5    11     4 1
    6    12     6 1
    7    13     9 1
    8    16     9 1
    9    25     5 1
   10    25    16 1
   11    26    10 1
   12    26    17 1
   13    27    18 1
   14    28    14 1
   15    28    19 1
   16    29    12 1
   17    30    13 1
   18    31    24 1
   19    32     1 1
   20    32    25 1
   21    33    21 1
   22    33    26 1
   23    34    22 1
   24    34    27 1
   25    35    23 1
   26    35    28 1
   27    36    12 1
   28    36    24 1
   29    37    13 1
   30    37    15 1
   31    38    31 1
   32    39    20 1
   33    39    32 1
   34    40     2 1
   35    40    33 1
   36    41     3 1
   37    41    34 1
   38    42     4 1
   39    42    35 1
   40    43    38 1
   41    44     5 1
   42    44    17 1
   43    44    39 1
   44    45    10 1
   45    45    18 1
   46    45    40 1
   47    46    19 1
   48    46    41 1
   49    47    14 1
   50    47    16 1
   51    47    42 1
   52    48    38 1
   53    49    48 1
   54    50    49 1
   55    51    50 1
   56    52    51 1
   57    53    51 1
   58    54    53 1
   59    55    54 1
   60    56    55 1
   61    57    56 1
   62    58    56 1
   63    59    58 1
   64    60    59 1
   65    61    60 1
   66    62    61 1
   67    63    61 1
   68    64    27 1
   69    64    46 1
   70    65     5 1
   71    65    10 1
   72    65    64 1
   73    65    14 1
   74    66    23 1
   75    67    23 1
   76    68    23 1
   77    69    22 1
   78    70    22 1
   79    71    22 1
   80    72    21 1
   81    73    21 1
   82    74    21 1
   83    75    20 1
   84    76    20 1
   85    77    20 1
   86    78    15 1
   87    79    15 1
   88    80    15 1
   89    81     8 1
   90    82     8 1
   91    83     8 1
   92    84     7 1
   93    85     7 1
   94    86     6 1
   95    87     6 1
   96    88     3 1
   97    89     3 1
   98    90     1 1
   99    91     1 1
  100    92    63 1
  101    93    63 1
  102    94    63 1
  103    95    62 1
  104    96    62 1
  105    97    62 1
  106    98    60 1
  107    99    60 1
  108   100    59 1
  109   101    59 1
  110   102    58 1
  111   103    58 1
  112   104    57 1
  113   105    57 1
  114   106    57 1
  115   107    55 1
  116   108    55 1
  117   109    54 1
  118   110    54 1
  119   111    53 1
  120   112    53 1
  121   113    19 1
  122   114    18 1
  123   115    17 1
  124   116     9 1
  125   117     2 1
  126   118    52 1
  127   119    52 1
  128   120    52 1
  129   121    51 1
  130   122    50 1
  131   123    50 1
  132   124    49 1
  133   125    49 1
  134   126    48 1
  135   127    48 1
  136   128    43 1
  137   129    43 1
  138   130    43 1
  139   131    39 1
  140   132    32 1
  141   133    31 1
  142   134    61 1
  143   135    56 1
  144   136    24 1
  145   137    24 1
  146   139   138 1
  147   140   139 1
  148   141   140 1
  149   142   140 1
  150   143   142 1
  151   144   138 1
  152   144   143 1
  153   145   144 1
  154   146   145 1
  155   147   146 1
  156   148   147 1
  157   149   148 1
  158   150   149 1
  159   151   150 1
  160   152   151 1
  161   153   152 1
  162   154   138 1
  163   155   138 1
  164   156   143 1
  165   157   147 1
  166   158   151 1
  167   160   159 1
  168   161   160 1
  169   162   161 1
  170   163   161 1
  171   164   163 1
  172   165   159 1
  173   165   164 1
  174   166   165 1
  175   167   166 1
  176   168   167 1
  177   169   168 1
  178   170   169 1
  179   171   170 1
  180   172   171 1
  181   173   172 1
  182   174   153 1
  183   174   173 1
  184   175   159 1
  185   176   159 1
  186   177   164 1
  187   178   168 1
  188   179   172 1
  189   180   179 1
  190   181   179 1
  191   182   179 1
  192   183   178 1
  193   184   178 1
  194   185   178 1
  195   186   177 1
  196   187   177 1
  197   188   177 1
  198   189   176 1
  199   190   176 1
  200   191   176 1
  201   192   175 1
  202   193   175 1
  203   194   175 1
  204   195   160 1
  205   196   160 1
  206   197   158 1
  207   198   158 1
  208   199   158 1
  209   200   157 1
  210   201   157 1
  211   202   157 1
  212   203   156 1
  213   204   156 1
  214   205   156 1
  215   206   155 1
  216   207   155 1
  217   208   155 1
  218   209   154 1
  219   210   154 1
  220   211   154 1
  221   212   141 1
  222   213   146 1
  223   214   145 1
  224   215   142 1
  225   216   142 1
  226   217   174 1
  227   218   173 1
  228   219   171 1
  229   220   170 1
  230   221   169 1
  231   222   140 1
  232   223   167 1
  233   224   166 1
  234   225   165 1
  235   226   163 1
  236   227   161 1
  237   228   139 1
  238   229   139 1
  239   230   153 1
  240   231   152 1
  241   232   150 1
  242   233   149 1
  243   234   148 1
  244   235   162 1
  245   65    153 1
  246   65    174 1
@<TRIPOS>SUBSTRUCTURE
      1 CLA               1 ****               0 ****  **** 
      2 LUT             138 ****               0 ****  **** 
