@<TRIPOS>MOLECULE
Cpptraj generated mol2 file.
  235   246     2     0     0
SMALL
USER_CHARGES


@<TRIPOS>ATOM
      1 CAA        77.6931   58.6903   33.6201 a2         1 CLA     -0.055900
      2 CAB        77.8645   62.2786   42.4563 c8         1 CLA     -0.148500
      3 CAC        71.2789   58.0163   42.6236 a2         1 CLA     -0.012600
      4 CAD        73.6296   55.7511   35.0155 ck         1 CLA      0.398800
      5 NA         76.8781   58.6689   37.1716 ns         1 CLA     -0.225500
      6 CBA        78.8554   58.6508   32.6167 a2         1 CLA     -0.135000
      7 CBB        78.9514   62.2097   43.2915 c0         1 CLA     -0.395200
      8 CBC        71.1299   56.5548   42.3751 a3         1 CLA     -0.037700
      9 CBD        75.1114   56.2606   34.7574 a1         1 CLA     -0.053900
     10 NB         76.9081   60.1457   39.6074 nm         1 CLA     -0.295700
     11 OBD        72.9613   55.0527   34.2683 o2         1 CLA     -0.494600
     12 CGA        79.3088   57.2852   32.0467 c4         1 CLA      0.827000
     13 CGD        76.0508   55.1537   34.4924 c4         1 CLA      0.655300
     14 ND         74.0668   57.8433   37.8069 nm         1 CLA     -0.291600
     15 CED        76.3627   52.7514   35.0083 a3         1 CLA      0.005400
     16 CHA        75.4844   57.2681   35.8410 cs         1 CLA     -0.123800
     17 CHB        78.7962   59.8636   38.1193 aa         1 CLA     -0.291900
     18 CHC        75.5190   60.5404   41.6498 aa         1 CLA     -0.090400
     19 CHD        72.2049   57.7277   39.5364 aa         1 CLA     -0.052000
     20 CMA        80.2178   57.7977   36.4479 a3         1 CLA     -0.230700
     21 CMB        80.2365   61.7662   40.0953 a3         1 CLA     -0.180800
     22 CMC        73.3475   60.2314   43.9429 a3         1 CLA     -0.134000
     23 CMD        70.9565   55.9492   37.2210 a3         1 CLA     -0.141100
     24 C1         79.9274   55.0673   32.7388 a2         1 CLA      0.023000
     25 C1A        76.6891   57.9539   36.0098 ac         1 CLA     -0.015100
     26 C1B        78.2492   60.3730   39.2575 cr         1 CLA      0.054700
     27 C1C        74.3919   59.7800   41.4983 cn         1 CLA     -0.005600
     28 C1D        72.8593   57.3414   38.2497 ap         1 CLA     -0.047300
     29 O1A        79.2264   56.8737   30.9183 o2         1 CLA     -0.610800
     30 O1D        76.9248   55.0858   33.6538 o2         1 CLA     -0.558200
     31 C2         80.1896   54.4008   34.0574 c8         1 CLA     -0.325100
     32 C2A        77.9116   57.9555   35.0251 a1         1 CLA      0.098600
     33 C2B        78.8440   61.2324   40.2829 cb         1 CLA      0.088500
     34 C2C        73.3561   59.5801   42.4944 cb         1 CLA      0.053700
     35 C2D        72.3189   56.5048   37.2838 cb         1 CLA      0.058900
     36 O2A        79.7095   56.4610   33.0782 o1         1 CLA     -0.437200
     37 O2D        75.7356   54.0896   35.2834 o1         1 CLA     -0.357600
     38 C3         80.7951   53.2257   34.2763 c5         1 CLA      0.031200
     39 C3A        79.0366   58.6183   35.9011 a1         1 CLA      0.166800
     40 C3B        77.8085   61.5179   41.2428 cb         1 CLA      0.035000
     41 C3C        72.4370   58.6802   41.9215 cb         1 CLA     -0.089900
     42 C3D        73.3070   56.3276   36.2584 cb         1 CLA     -0.035900
     43 C4         80.1280   51.8248   34.5313 a3         1 CLA     -0.053300
     44 C4A        78.1984   59.1131   37.1458 ac         1 CLA      0.001800
     45 C4B        76.7238   60.6682   40.8630 cn         1 CLA     -0.020900
     46 C4C        72.8910   58.4390   40.5423 cr         1 CLA     -0.044400
     47 C4D        74.3707   57.1956   36.6672 c6         1 CLA     -0.046000
     48 C5         82.2565   53.1658   34.1985 a2         1 CLA     -0.070400
     49 C6         83.1447   54.3262   34.6368 a2         1 CLA      0.043900
     50 C7         83.1900   54.3181   36.1947 a2         1 CLA     -0.150000
     51 C8         83.9880   55.5103   36.8638 a1         1 CLA      0.064200
     52 C9         85.3800   55.4105   36.3024 a3         1 CLA     -0.259300
     53 C10        83.9199   55.4855   38.4841 a2         1 CLA     -0.071900
     54 C11        82.5708   55.9491   39.1114 a2         1 CLA      0.014500
     55 C12        82.6266   56.3259   40.5999 a2         1 CLA     -0.112100
     56 C13        81.2578   56.6835   41.3079 a1         1 CLA      0.089200
     57 C14        80.2320   57.5857   40.4549 a3         1 CLA     -0.239100
     58 C15        81.4298   57.2082   42.8156 a2         1 CLA     -0.102200
     59 C16        82.1343   58.5633   43.0471 a2         1 CLA      0.023900
     60 C17        82.4112   58.6219   44.5597 a2         1 CLA     -0.105700
     61 C18        83.0675   59.8091   45.1796 a1         1 CLA      0.206800
     62 C19        84.5389   59.8885   44.9146 a3         1 CLA     -0.280100
     63 C20        82.2885   61.1474   45.2391 a3         1 CLA     -0.280100
     64 NC         74.1645   59.0635   40.3372 nx         1 CLA     -0.309200
     65 MG         75.4681   58.9775   38.6825 mg         1 CLA      0.895000
     66 HMD3       70.7888   55.1544   36.4763 dc         1 CLA      0.064300
     67 HMD2       70.8371   55.4768   38.2503 dc         1 CLA      0.064300
     68 HMD1       70.2237   56.7858   37.0815 dc         1 CLA      0.064300
     69 HMC3       72.3984   59.8732   44.3606 dc         1 CLA      0.052100
     70 HMC2       74.2080   59.8496   44.5174 dc         1 CLA      0.052100
     71 HMC1       73.4223   61.3639   44.0351 dc         1 CLA      0.052100
     72 HMB3       80.3699   62.6862   40.6288 dc         1 CLA      0.063600
     73 HMB2       80.9719   61.0628   40.5849 dc         1 CLA      0.063600
     74 HMB1       80.3525   61.8764   39.0247 dc         1 CLA      0.063600
     75 HMA3       80.9289   58.5906   36.8189 dc         1 CLA      0.058300
     76 HMA2       80.0188   57.0833   37.2945 dc         1 CLA      0.058300
     77 HMA1       80.7419   57.2816   35.6994 dc         1 CLA      0.058300
     78 HED3       75.9593   51.9861   35.6283 dc         1 CLA      0.079300
     79 HED2       76.1636   52.4824   33.9643 dc         1 CLA      0.079300
     80 HED1       77.4607   52.9361   35.1269 dc         1 CLA      0.079300
     81 HBC3       70.4427   56.3939   41.5334 dc         1 CLA      0.016300
     82 HBC2       72.1576   56.2740   42.1524 dc         1 CLA      0.016300
     83 HBC1       70.7190   55.9905   43.1881 dc         1 CLA      0.016300
     84 HBB2       78.9324   62.7205   44.2215 da         1 CLA      0.183000
     85 HBB1       79.8821   61.7338   43.0063 da         1 CLA      0.183000
     86 HBA2       78.6411   59.3141   31.7733 dc         1 CLA      0.029400
     87 HBA1       79.7807   59.0500   33.0776 dc         1 CLA      0.029400
     88 HAC2       71.4153   58.1215   43.6803 dc         1 CLA      0.029300
     89 HAC1       70.3662   58.5888   42.4766 dc         1 CLA      0.029300
     90 HAA2       76.7891   58.3235   33.1097 dc         1 CLA      0.028700
     91 HAA1       77.3766   59.7248   33.8853 dc         1 CLA      0.028700
     92 H203       82.3661   61.5452   44.2532 dc         1 CLA      0.065600
     93 H202       81.2032   60.9450   45.2836 dc         1 CLA      0.065600
     94 H201       82.6577   61.9400   45.8853 dc         1 CLA      0.065600
     95 H193       85.1068   58.9948   45.0845 dc         1 CLA      0.065600
     96 H192       84.5882   60.1364   43.8774 dc         1 CLA      0.065600
     97 H191       85.0255   60.5740   45.5837 dc         1 CLA      0.065600
     98 H172       81.4441   58.6377   44.9190 dc         1 CLA      0.027600
     99 H171       82.9778   57.6825   44.7556 dc         1 CLA      0.027600
    100 H162       83.1243   58.6383   42.5630 dc         1 CLA      0.002900
    101 H161       81.4273   59.3597   42.7990 dc         1 CLA      0.002900
    102 H152       80.4538   57.2855   43.2430 dc         1 CLA      0.029100
    103 H151       81.9793   56.3798   43.3605 dc         1 CLA      0.029100
    104 H143       80.6201   58.5606   40.0701 dc         1 CLA      0.063600
    105 H142       79.7729   57.0127   39.6226 dc         1 CLA      0.063600
    106 H141       79.4274   57.9039   41.0790 dc         1 CLA      0.063600
    107 H122       83.0360   55.5185   41.2108 dc         1 CLA      0.032500
    108 H121       83.2944   57.1741   40.6585 dc         1 CLA      0.032500
    109 H112       82.0159   56.6822   38.5198 dc         1 CLA      0.006600
    110 H111       81.9200   55.0464   38.9971 dc         1 CLA      0.006600
    111 H102       84.1762   54.5677   38.9443 dc         1 CLA      0.024100
    112 H101       84.5327   56.3208   38.8800 dc         1 CLA      0.024100
    113 HHD        71.1683   57.3117   39.7025 da         1 CLA      0.174300
    114 HHC        75.5902   61.0870   42.5774 da         1 CLA      0.136800
    115 HHB        79.8428   59.9680   37.9685 da         1 CLA      0.138300
    116 HBD        75.1333   56.9049   33.8979 dc         1 CLA      0.107700
    117 HAB        76.9147   62.6286   42.8552 da         1 CLA      0.155200
    118 H93        85.8907   54.4284   36.5435 dc         1 CLA      0.069500
    119 H92        85.3941   55.5209   35.2040 dc         1 CLA      0.069500
    120 H91        86.0419   56.2128   36.7081 dc         1 CLA      0.069500
    121 H8         83.5648   56.4277   36.5017 dc         1 CLA      0.029300
    122 H72        82.2414   54.4634   36.5941 dc         1 CLA      0.044400
    123 H71        83.4496   53.2921   36.5024 dc         1 CLA      0.044400
    124 H62        84.1332   54.1552   34.2917 dc         1 CLA      0.015600
    125 H61        82.9207   55.3037   34.2293 dc         1 CLA      0.015600
    126 H52        82.6298   52.2725   34.6073 dc         1 CLA      0.033200
    127 H51        82.3867   53.0474   33.1149 dc         1 CLA      0.033200
    128 H43        79.7876   51.8700   35.5774 dc         1 CLA      0.037000
    129 H42        79.1268   51.6477   34.0145 dc         1 CLA      0.037000
    130 H41        80.8355   50.9835   34.3157 dc         1 CLA      0.037000
    131 H3A        79.3943   59.4579   35.3434 dc         1 CLA      0.041100
    132 H2A        78.0125   56.9063   34.8087 dc         1 CLA      0.083100
    133 H2         80.0178   55.0039   34.9559 da         1 CLA      0.180900
    134 H18        82.9956   59.5483   46.2701 dc         1 CLA     -0.003900
    135 H13        80.7234   55.7000   41.3687 dc         1 CLA      0.019700
    136 H12        79.0599   54.6539   32.2693 dc         1 CLA      0.120400
    137 H11        80.7592   54.9757   31.9949 dc         1 CLA      0.120400
    138 C1         68.2016   61.1378   49.6175 Z1         2 LUT      0.509236
    139 C2         68.4502   62.3576   50.5137 Z2         2 LUT     -0.434695
    140 C3         67.2580   63.2931   50.9243 Z3         2 LUT      0.437453
    141 O3         67.6803   64.6755   51.1876 S1         2 LUT     -0.547129
    142 C4         66.1414   63.2721   49.8930 Z4         2 LUT     -0.468603
    143 C5         66.6794   62.8151   48.4908 Z5         2 LUT      0.279246
    144 C6         67.4711   61.7506   48.4082 Z6         2 LUT     -0.305473
    145 C7         68.1036   61.4449   47.1361 Z7         2 LUT      0.069402
    146 C8         69.1371   61.9954   46.5315 Z8         2 LUT     -0.191631
    147 C9         69.5399   61.7051   45.2017 Z9         2 LUT      0.196698
    148 C10        70.3955   62.5346   44.6668 Y1         2 LUT     -0.208611
    149 C11        71.0143   62.5574   43.3561 Y2         2 LUT      0.030784
    150 C12        72.1656   63.2969   43.0804 Y3         2 LUT     -0.220316
    151 C13        72.9772   63.2349   41.9070 Y4         2 LUT      0.215937
    152 C14        74.2194   63.7855   41.9603 Y5         2 LUT     -0.185793
    153 C15        75.2360   63.9615   40.8615 Y6         2 LUT     -0.057835
    154 C16        67.2782   60.2137   50.4759 Y7         2 LUT     -0.405615
    155 C17        69.5677   60.3647   49.3939 Y7         2 LUT     -0.405615
    156 C18        66.1060   63.6523   47.3879 Y9         2 LUT     -0.369639
    157 C19        69.0940   60.3949   44.5057 W1         2 LUT     -0.333362
    158 C20        72.3648   62.7018   40.7031 W2         2 LUT     -0.323439
    159 C21        86.4206   65.3641   34.4428 Z1         2 LUT      0.406104
    160 C22        87.0862   64.6661   33.2592 Z2         2 LUT     -0.404965
    161 C23        87.0439   65.3855   31.9725 Z3         2 LUT      0.391255
    162 O23        87.5882   64.4507   31.0922 S1         2 LUT     -0.528210
    163 C24        85.7722   66.0626   31.7299 W6         2 LUT     -0.258361
    164 C25        84.8347   66.2598   32.6006 Z5         2 LUT      0.133546
    165 C26        84.9280   65.6455   33.9936 W8         2 LUT     -0.147008
    166 C27        84.1352   66.4345   34.9850 Z7         2 LUT      0.023843
    167 C28        83.0684   65.9695   35.7197 Z8         2 LUT     -0.216987
    168 C29        82.3824   66.5849   36.9568 Z9         2 LUT      0.206524
    169 C30        81.3505   65.8235   37.4384 Y1         2 LUT     -0.215556
    170 C31        80.5579   66.0516   38.6115 Y2         2 LUT      0.025142
    171 C32        79.4021   65.4118   38.8999 Y3         2 LUT     -0.212209
    172 C33        78.5414   65.5590   40.0619 Y4         2 LUT      0.240937
    173 C34        77.3677   64.8505   40.0390 Y5         2 LUT     -0.218862
    174 C35        76.3761   64.6632   41.0554 Y6         2 LUT     -0.023547
    175 C36        87.3668   66.5136   34.8776 Y7         2 LUT     -0.393485
    176 C37        86.4268   64.3541   35.6992 Y7         2 LUT     -0.393485
    177 C38        83.6591   67.1828   32.2269 Y9         2 LUT     -0.387526
    178 C39        83.0367   67.7012   37.7027 W1         2 LUT     -0.322618
    179 C40        79.0132   66.4949   41.1482 W2         2 LUT     -0.358472
    180 H403       79.1006   67.5336   40.8358 R7         2 LUT      0.097720
    181 H402       78.4280   66.6352   42.0216 R7         2 LUT      0.097720
    182 H401       80.0244   66.1671   41.5202 R7         2 LUT      0.097720
    183 H393       83.9473   67.4721   38.2074 R4         2 LUT      0.082505
    184 H392       83.3291   68.4519   36.9757 R4         2 LUT      0.082505
    185 H391       82.4290   68.3003   38.4167 R4         2 LUT      0.082505
    186 H383       82.7542   66.7960   32.5544 R1         2 LUT      0.104030
    187 H382       83.8618   68.2767   32.4845 R1         2 LUT      0.104030
    188 H381       83.4916   67.2038   31.1473 R1         2 LUT      0.104030
    189 H373       86.0949   63.3213   35.3562 T4         2 LUT      0.089537
    190 H372       87.4589   64.3161   35.9804 T4         2 LUT      0.089537
    191 H371       85.7949   64.7808   36.4886 T4         2 LUT      0.089537
    192 H363       88.3883   66.1940   34.9106 T4         2 LUT      0.089537
    193 H362       87.3566   67.3805   34.1203 T4         2 LUT      0.089537
    194 H361       87.0311   66.8491   35.8892 T4         2 LUT      0.089537
    195 H222       88.1555   64.5386   33.4888 U2         2 LUT      0.127376
    196 H221       86.6891   63.6137   33.0599 U2         2 LUT      0.127376
    197 H203       72.6406   63.2739   39.8274 R7         2 LUT      0.087068
    198 H202       72.6036   61.6690   40.5055 R7         2 LUT      0.087068
    199 H201       71.2638   62.8930   40.7393 R7         2 LUT      0.087068
    200 H193       68.1159   60.2251   44.1193 R4         2 LUT      0.089716
    201 H192       69.6700   60.1240   43.6879 R4         2 LUT      0.089716
    202 H191       69.3265   59.5631   45.1838 R4         2 LUT      0.089716
    203 H183       64.9474   63.6198   47.3068 R1         2 LUT      0.094572
    204 H182       66.5184   64.6341   47.5687 R1         2 LUT      0.094572
    205 H181       66.5849   63.4170   46.4539 R1         2 LUT      0.094572
    206 H173       70.0044   60.0717   50.3258 T4         2 LUT      0.093752
    207 H172       69.5668   59.5717   48.6158 T4         2 LUT      0.093752
    208 H171       70.3651   61.0789   49.0950 T4         2 LUT      0.093752
    209 H163       66.3242   60.6762   50.6819 T4         2 LUT      0.093752
    210 H162       66.9912   59.3259   49.9481 T4         2 LUT      0.093752
    211 H161       67.7319   59.9994   51.4933 T4         2 LUT      0.093752
    212 HO3        67.0370   65.1414   51.7505 Q1         2 LUT      0.300121
    213 H8         69.5768   62.8336   46.9870 U7         2 LUT      0.080784
    214 H7         67.6759   60.5557   46.7377 U6         2 LUT      0.042190
    215 H42        65.2770   62.6369   50.1494 U5         2 LUT      0.145166
    216 H41        65.7730   64.3274   49.7315 U5         2 LUT      0.145166
    217 H35        76.5689   65.1573   42.0230 T3         2 LUT      0.077919
    218 H34        77.1808   64.3656   39.1042 T2         2 LUT      0.073626
    219 H32        79.1847   64.7242   38.0873 T1         2 LUT      0.092510
    220 H31        80.9248   66.7688   39.3195 U9         2 LUT      0.070048
    221 H30        80.9713   65.0798   36.8082 U8         2 LUT      0.085442
    222 H3         66.7936   62.9631   51.8425 U3         2 LUT     -0.031596
    223 H28        82.5145   65.1649   35.2086 U7         2 LUT      0.084728
    224 H27        84.6380   67.3146   35.3792 U6         2 LUT      0.087291
    225 H26        84.5185   64.6096   33.8356 Q6         2 LUT      0.075325
    226 H24        85.6652   66.3371   30.6379 Q5         2 LUT      0.094482
    227 H23        87.7565   66.1768   32.3445 U3         2 LUT     -0.024869
    228 H22        68.9321   61.9390   51.4332 U2         2 LUT      0.127376
    229 H21        69.1517   63.0090   49.9772 U2         2 LUT      0.127376
    230 H15        75.0747   63.5437   39.9029 T3         2 LUT      0.093200
    231 H14        74.5347   64.1814   42.8976 T2         2 LUT      0.068865
    232 H12        72.6288   63.7992   43.9043 T1         2 LUT      0.095507
    233 H11        70.6902   61.8478   42.5462 U9         2 LUT      0.068930
    234 H10        70.7016   63.4202   45.2996 U8         2 LUT      0.083911
    235 H1         87.8043   64.7308   30.1855 Q1         2 LUT      0.297311
@<TRIPOS>BOND
    1     6     1 1
    2     7     2 1
    3     8     3 1
    4     9     4 1
    5    11     4 1
    6    12     6 1
    7    13     9 1
    8    16     9 1
    9    25     5 1
   10    25    16 1
   11    26    10 1
   12    26    17 1
   13    27    18 1
   14    28    14 1
   15    28    19 1
   16    29    12 1
   17    30    13 1
   18    31    24 1
   19    32     1 1
   20    32    25 1
   21    33    21 1
   22    33    26 1
   23    34    22 1
   24    34    27 1
   25    35    23 1
   26    35    28 1
   27    36    12 1
   28    36    24 1
   29    37    13 1
   30    37    15 1
   31    38    31 1
   32    39    20 1
   33    39    32 1
   34    40     2 1
   35    40    33 1
   36    41     3 1
   37    41    34 1
   38    42     4 1
   39    42    35 1
   40    43    38 1
   41    44     5 1
   42    44    17 1
   43    44    39 1
   44    45    10 1
   45    45    18 1
   46    45    40 1
   47    46    19 1
   48    46    41 1
   49    47    14 1
   50    47    16 1
   51    47    42 1
   52    48    38 1
   53    49    48 1
   54    50    49 1
   55    51    50 1
   56    52    51 1
   57    53    51 1
   58    54    53 1
   59    55    54 1
   60    56    55 1
   61    57    56 1
   62    58    56 1
   63    59    58 1
   64    60    59 1
   65    61    60 1
   66    62    61 1
   67    63    61 1
   68    64    27 1
   69    64    46 1
   70    65     5 1
   71    65    10 1
   72    65    64 1
   73    65    14 1
   74    66    23 1
   75    67    23 1
   76    68    23 1
   77    69    22 1
   78    70    22 1
   79    71    22 1
   80    72    21 1
   81    73    21 1
   82    74    21 1
   83    75    20 1
   84    76    20 1
   85    77    20 1
   86    78    15 1
   87    79    15 1
   88    80    15 1
   89    81     8 1
   90    82     8 1
   91    83     8 1
   92    84     7 1
   93    85     7 1
   94    86     6 1
   95    87     6 1
   96    88     3 1
   97    89     3 1
   98    90     1 1
   99    91     1 1
  100    92    63 1
  101    93    63 1
  102    94    63 1
  103    95    62 1
  104    96    62 1
  105    97    62 1
  106    98    60 1
  107    99    60 1
  108   100    59 1
  109   101    59 1
  110   102    58 1
  111   103    58 1
  112   104    57 1
  113   105    57 1
  114   106    57 1
  115   107    55 1
  116   108    55 1
  117   109    54 1
  118   110    54 1
  119   111    53 1
  120   112    53 1
  121   113    19 1
  122   114    18 1
  123   115    17 1
  124   116     9 1
  125   117     2 1
  126   118    52 1
  127   119    52 1
  128   120    52 1
  129   121    51 1
  130   122    50 1
  131   123    50 1
  132   124    49 1
  133   125    49 1
  134   126    48 1
  135   127    48 1
  136   128    43 1
  137   129    43 1
  138   130    43 1
  139   131    39 1
  140   132    32 1
  141   133    31 1
  142   134    61 1
  143   135    56 1
  144   136    24 1
  145   137    24 1
  146   139   138 1
  147   140   139 1
  148   141   140 1
  149   142   140 1
  150   143   142 1
  151   144   138 1
  152   144   143 1
  153   145   144 1
  154   146   145 1
  155   147   146 1
  156   148   147 1
  157   149   148 1
  158   150   149 1
  159   151   150 1
  160   152   151 1
  161   153   152 1
  162   154   138 1
  163   155   138 1
  164   156   143 1
  165   157   147 1
  166   158   151 1
  167   160   159 1
  168   161   160 1
  169   162   161 1
  170   163   161 1
  171   164   163 1
  172   165   159 1
  173   165   164 1
  174   166   165 1
  175   167   166 1
  176   168   167 1
  177   169   168 1
  178   170   169 1
  179   171   170 1
  180   172   171 1
  181   173   172 1
  182   174   153 1
  183   174   173 1
  184   175   159 1
  185   176   159 1
  186   177   164 1
  187   178   168 1
  188   179   172 1
  189   180   179 1
  190   181   179 1
  191   182   179 1
  192   183   178 1
  193   184   178 1
  194   185   178 1
  195   186   177 1
  196   187   177 1
  197   188   177 1
  198   189   176 1
  199   190   176 1
  200   191   176 1
  201   192   175 1
  202   193   175 1
  203   194   175 1
  204   195   160 1
  205   196   160 1
  206   197   158 1
  207   198   158 1
  208   199   158 1
  209   200   157 1
  210   201   157 1
  211   202   157 1
  212   203   156 1
  213   204   156 1
  214   205   156 1
  215   206   155 1
  216   207   155 1
  217   208   155 1
  218   209   154 1
  219   210   154 1
  220   211   154 1
  221   212   141 1
  222   213   146 1
  223   214   145 1
  224   215   142 1
  225   216   142 1
  226   217   174 1
  227   218   173 1
  228   219   171 1
  229   220   170 1
  230   221   169 1
  231   222   140 1
  232   223   167 1
  233   224   166 1
  234   225   165 1
  235   226   163 1
  236   227   161 1
  237   228   139 1
  238   229   139 1
  239   230   153 1
  240   231   152 1
  241   232   150 1
  242   233   149 1
  243   234   148 1
  244   235   162 1
  245   65    153 1
  246   65    174 1
@<TRIPOS>SUBSTRUCTURE
      1 CLA               1 ****               0 ****  **** 
      2 LUT             138 ****               0 ****  **** 
