@<TRIPOS>MOLECULE
Cpptraj generated mol2 file.
  235   246     2     0     0
SMALL
USER_CHARGES


@<TRIPOS>ATOM
      1 CAA        79.7074   59.4082   33.6930 a2         1 CLA     -0.055900
      2 CAB        79.5056   63.1384   42.6315 c8         1 CLA     -0.148500
      3 CAC        73.0905   58.2173   42.1558 a2         1 CLA     -0.012600
      4 CAD        76.0006   56.3636   34.7042 ck         1 CLA      0.398800
      5 NA         78.7597   59.5197   37.0610 ns         1 CLA     -0.225500
      6 CBA        80.8921   59.3772   32.7236 a2         1 CLA     -0.135000
      7 CBB        80.2716   64.2326   42.9409 c0         1 CLA     -0.395200
      8 CBC        73.4629   56.7236   42.3990 a3         1 CLA     -0.037700
      9 CBD        77.3236   57.0298   34.4806 a1         1 CLA     -0.053900
     10 NB         78.5757   60.9193   39.7943 nm         1 CLA     -0.295700
     11 OBD        75.4671   55.6142   33.9085 o2         1 CLA     -0.494600
     12 CGA        81.3858   57.9914   32.3175 c4         1 CLA      0.827000
     13 CGD        78.3818   56.0169   33.9727 c4         1 CLA      0.655300
     14 ND         76.0153   58.4084   37.6186 nm         1 CLA     -0.291600
     15 CED        79.3111   53.7967   34.3120 a3         1 CLA      0.005400
     16 CHA        77.5949   57.8464   35.7563 cs         1 CLA     -0.123800
     17 CHB        80.4714   60.8599   38.2502 aa         1 CLA     -0.291900
     18 CHC        77.1643   61.1422   41.7533 aa         1 CLA     -0.090400
     19 CHD        74.2650   58.0114   39.2497 aa         1 CLA     -0.052000
     20 CMA        82.1910   58.9674   36.5804 a3         1 CLA     -0.230700
     21 CMB        81.7636   62.8996   40.4307 a3         1 CLA     -0.180800
     22 CMC        75.0204   60.3447   43.6982 a3         1 CLA     -0.134000
     23 CMD        73.1572   56.2102   36.7210 a3         1 CLA     -0.141100
     24 C1         82.5387   55.9578   33.0401 a2         1 CLA      0.023000
     25 C1A        78.6988   58.6468   35.9599 ac         1 CLA     -0.015100
     26 C1B        79.8508   61.2748   39.4642 cr         1 CLA      0.054700
     27 C1C        76.1414   60.1999   41.4380 cn         1 CLA     -0.005600
     28 C1D        74.8826   57.8078   37.9718 ap         1 CLA     -0.047300
     29 O1A        81.4365   57.5924   31.1727 o2         1 CLA     -0.610800
     30 O1D        78.9687   56.1412   32.8937 o2         1 CLA     -0.558200
     31 C2         83.0953   55.4968   34.3727 c8         1 CLA     -0.325100
     32 C2A        79.9151   58.7684   35.1412 a1         1 CLA      0.098600
     33 C2B        80.3941   62.2278   40.4294 cb         1 CLA      0.088500
     34 C2C        75.0394   59.9052   42.2718 cb         1 CLA      0.053700
     35 C2D        74.4699   56.8713   36.8905 cb         1 CLA      0.058900
     36 O2A        81.8970   57.2349   33.3809 o1         1 CLA     -0.437200
     37 O2D        78.5761   54.9735   34.8880 o1         1 CLA     -0.357600
     38 C3         84.1677   54.6912   34.6588 c5         1 CLA      0.031200
     39 C3A        80.8775   59.6305   36.0287 a1         1 CLA      0.166800
     40 C3B        79.4043   62.4171   41.3945 cb         1 CLA      0.035000
     41 C3C        74.2863   58.9397   41.6098 cb         1 CLA     -0.089900
     42 C3D        75.5264   56.8500   36.0096 cb         1 CLA     -0.035900
     43 C4         83.9588   53.2143   34.9872 a3         1 CLA     -0.053300
     44 C4A        80.0167   60.0921   37.1862 ac         1 CLA      0.001800
     45 C4B        78.2932   61.4832   40.9883 cn         1 CLA     -0.020900
     46 C4C        74.8373   58.8000   40.3446 cr         1 CLA     -0.044400
     47 C4D        76.4561   57.7828   36.5433 c6         1 CLA     -0.046000
     48 C5         85.5958   55.1532   34.7256 a2         1 CLA     -0.070400
     49 C6         85.8053   56.5139   35.3056 a2         1 CLA      0.043900
     50 C7         85.7172   56.3696   36.8423 a2         1 CLA     -0.150000
     51 C8         85.4939   57.8094   37.4904 a1         1 CLA      0.064200
     52 C9         86.6717   58.6617   37.0614 a3         1 CLA     -0.259300
     53 C10        85.2057   57.6682   39.0510 a2         1 CLA     -0.071900
     54 C11        84.5131   58.8826   39.8108 a2         1 CLA      0.014500
     55 C12        83.9745   58.5604   41.2092 a2         1 CLA     -0.112100
     56 C13        83.4160   59.9113   41.8910 a1         1 CLA      0.089200
     57 C14        84.5648   60.8605   42.2407 a3         1 CLA     -0.239100
     58 C15        82.5444   59.6793   43.1700 a2         1 CLA     -0.102200
     59 C16        81.2912   58.8665   42.9388 a2         1 CLA      0.023900
     60 C17        80.6454   58.4296   44.2571 a2         1 CLA     -0.105700
     61 C18        79.3699   57.4847   44.1134 a1         1 CLA      0.206800
     62 C19        79.3580   56.5842   45.3507 a3         1 CLA     -0.280100
     63 C20        78.0045   58.1764   43.8994 a3         1 CLA     -0.280100
     64 NC         75.9886   59.5648   40.3131 nx         1 CLA     -0.309200
     65 MG         77.2967   59.7372   38.6546 mg         1 CLA      0.895000
     66 HMD3       73.2051   55.5425   35.8667 dc         1 CLA      0.064300
     67 HMD2       72.8548   55.7157   37.6031 dc         1 CLA      0.064300
     68 HMD1       72.3507   56.9443   36.5637 dc         1 CLA      0.064300
     69 HMC3       75.5700   61.2667   43.9634 dc         1 CLA      0.052100
     70 HMC2       74.0378   60.4574   44.0498 dc         1 CLA      0.052100
     71 HMC1       75.4921   59.4606   44.1712 dc         1 CLA      0.052100
     72 HMB3       81.6268   63.8937   40.1689 dc         1 CLA      0.063600
     73 HMB2       82.1139   62.8600   41.4863 dc         1 CLA      0.063600
     74 HMB1       82.4472   62.3312   39.7760 dc         1 CLA      0.063600
     75 HMA3       82.6397   58.5955   35.6449 dc         1 CLA      0.058300
     76 HMA2       82.8330   59.6124   37.1051 dc         1 CLA      0.058300
     77 HMA1       81.9273   58.0826   37.1842 dc         1 CLA      0.058300
     78 HED3       78.9345   53.4381   33.3812 dc         1 CLA      0.079300
     79 HED2       80.3056   54.1082   34.1719 dc         1 CLA      0.079300
     80 HED1       79.3991   52.9652   35.0237 dc         1 CLA      0.079300
     81 HBC3       74.3646   56.6299   42.9840 dc         1 CLA      0.016300
     82 HBC2       72.5518   56.3135   42.9861 dc         1 CLA      0.016300
     83 HBC1       73.5274   56.2460   41.4414 dc         1 CLA      0.016300
     84 HBB2       80.3444   64.5919   43.9401 da         1 CLA      0.183000
     85 HBB1       80.9104   64.7302   42.1517 da         1 CLA      0.183000
     86 HBA2       80.4932   59.8461   31.8069 dc         1 CLA      0.029400
     87 HBA1       81.7195   60.0154   33.0729 dc         1 CLA      0.029400
     88 HAC2       72.7932   58.6523   43.1209 dc         1 CLA      0.029300
     89 HAC1       72.1654   58.3000   41.4717 dc         1 CLA      0.029300
     90 HAA2       78.9981   58.7785   33.1565 dc         1 CLA      0.028700
     91 HAA1       79.2596   60.5003   33.6999 dc         1 CLA      0.028700
     92 H203       77.9701   58.7428   42.9260 dc         1 CLA      0.065600
     93 H202       77.1213   57.4627   43.9286 dc         1 CLA      0.065600
     94 H201       77.8790   59.0065   44.6289 dc         1 CLA      0.065600
     95 H193       78.6532   55.7532   45.4465 dc         1 CLA      0.065600
     96 H192       80.3324   56.1011   45.5499 dc         1 CLA      0.065600
     97 H191       79.1759   57.2537   46.2084 dc         1 CLA      0.065600
     98 H172       81.3556   58.2076   45.1390 dc         1 CLA      0.027600
     99 H171       80.2358   59.3378   44.6835 dc         1 CLA      0.027600
    100 H162       80.6134   59.5144   42.3749 dc         1 CLA      0.002900
    101 H161       81.5720   57.9535   42.4169 dc         1 CLA      0.002900
    102 H152       83.2252   59.2929   43.9135 dc         1 CLA      0.029100
    103 H151       82.2394   60.6202   43.6414 dc         1 CLA      0.029100
    104 H143       84.1867   61.4771   43.0514 dc         1 CLA      0.063600
    105 H142       85.4478   60.3610   42.5463 dc         1 CLA      0.063600
    106 H141       84.8447   61.4554   41.4309 dc         1 CLA      0.063600
    107 H122       83.1651   57.8763   41.1445 dc         1 CLA      0.032500
    108 H121       84.6877   58.1100   41.8861 dc         1 CLA      0.032500
    109 H112       85.2706   59.6917   39.8855 dc         1 CLA      0.006600
    110 H111       83.7493   59.1688   39.1118 dc         1 CLA      0.006600
    111 H102       84.4671   56.9662   39.0802 dc         1 CLA      0.024100
    112 H101       86.0889   57.3357   39.6443 dc         1 CLA      0.024100
    113 HHD        73.2440   57.6017   39.3728 da         1 CLA      0.174300
    114 HHC        77.2000   61.7211   42.6525 da         1 CLA      0.136800
    115 HHB        81.4488   61.1803   38.0592 da         1 CLA      0.138300
    116 HBD        77.2086   57.7381   33.7187 dc         1 CLA      0.107700
    117 HAB        78.9463   62.7355   43.4903 da         1 CLA      0.155200
    118 H93        87.5507   57.9634   37.0630 dc         1 CLA      0.069500
    119 H92        86.4763   59.1948   36.1967 dc         1 CLA      0.069500
    120 H91        86.8190   59.4210   37.8452 dc         1 CLA      0.069500
    121 H8         84.5629   58.2476   37.0498 dc         1 CLA      0.029300
    122 H72        84.8140   55.7954   37.0899 dc         1 CLA      0.044400
    123 H71        86.5822   55.8394   37.1886 dc         1 CLA      0.044400
    124 H62        86.7853   56.8682   35.0824 dc         1 CLA      0.015600
    125 H61        85.0176   57.1827   34.9681 dc         1 CLA      0.015600
    126 H52        86.1413   54.4054   35.2260 dc         1 CLA      0.033200
    127 H51        85.9893   55.1171   33.7197 dc         1 CLA      0.033200
    128 H43        84.4721   52.5971   34.3387 dc         1 CLA      0.037000
    129 H42        84.4185   53.0965   35.9560 dc         1 CLA      0.037000
    130 H41        82.8796   52.9351   34.9260 dc         1 CLA      0.037000
    131 H3A        81.1636   60.4815   35.4165 dc         1 CLA      0.041100
    132 H2A        80.3060   57.7379   35.0632 dc         1 CLA      0.083100
    133 H2         82.7287   55.8701   35.2949 da         1 CLA      0.180900
    134 H18        79.5300   56.8958   43.2007 dc         1 CLA     -0.003900
    135 H13        82.7545   60.4471   41.1646 dc         1 CLA      0.019700
    136 H12        81.8493   55.2886   32.5597 dc         1 CLA      0.120400
    137 H11        83.3762   56.0184   32.3644 dc         1 CLA      0.120400
    138 C1         69.3973   62.2104   49.8230 Z1         2 LUT      0.509236
    139 C2         68.0508   61.9220   50.5420 Z2         2 LUT     -0.434695
    140 C3         67.0208   63.1275   50.4679 Z3         2 LUT      0.437453
    141 O3         66.4906   63.4849   51.7386 S1         2 LUT     -0.547129
    142 C4         67.3996   64.3521   49.6416 Z4         2 LUT     -0.468603
    143 C5         68.1114   63.9156   48.3913 Z5         2 LUT      0.279246
    144 C6         69.0240   62.9594   48.4480 Z6         2 LUT     -0.305473
    145 C7         69.4895   62.3315   47.1882 Z7         2 LUT      0.069402
    146 C8         70.5370   62.7062   46.4021 Z8         2 LUT     -0.191631
    147 C9         71.0800   62.3981   45.1261 Z9         2 LUT      0.196698
    148 C10        72.1590   63.0691   44.6541 Y1         2 LUT     -0.208611
    149 C11        72.9041   63.0287   43.4092 Y2         2 LUT      0.030784
    150 C12        74.0930   63.6392   43.1145 Y3         2 LUT     -0.220316
    151 C13        74.8792   63.6454   41.9574 Y4         2 LUT      0.215937
    152 C14        76.0044   64.5138   41.9555 Y5         2 LUT     -0.185793
    153 C15        76.9927   64.6931   40.8767 Y6         2 LUT     -0.057835
    154 C16        70.1576   60.8667   49.7895 Y7         2 LUT     -0.405615
    155 C17        69.9960   63.0575   51.0284 Y7         2 LUT     -0.405615
    156 C18        67.4604   64.4398   47.1326 Y9         2 LUT     -0.369639
    157 C19        70.4680   61.4223   44.2117 W1         2 LUT     -0.333362
    158 C20        74.2171   63.0240   40.6714 W2         2 LUT     -0.323439
    159 C21        88.1759   66.5829   34.3823 Z1         2 LUT      0.406104
    160 C22        88.9127   66.0250   33.2240 Z2         2 LUT     -0.404965
    161 C23        89.0123   66.8911   31.9842 Z3         2 LUT      0.391255
    162 O23        89.5490   65.9164   31.0104 S1         2 LUT     -0.528210
    163 C24        87.6677   67.5665   31.7041 W6         2 LUT     -0.258361
    164 C25        86.6115   67.5858   32.5336 Z5         2 LUT      0.133546
    165 C26        86.6732   66.9606   33.9644 W8         2 LUT     -0.147008
    166 C27        85.8675   67.6928   34.9899 Z7         2 LUT      0.023843
    167 C28        84.5835   67.3688   35.4536 Z8         2 LUT     -0.216987
    168 C29        83.9405   67.6552   36.8224 Z9         2 LUT      0.206524
    169 C30        82.8491   66.9226   37.2915 Y1         2 LUT     -0.215556
    170 C31        82.2873   66.8269   38.5919 Y2         2 LUT      0.025142
    171 C32        81.0879   66.1650   38.7164 Y3         2 LUT     -0.212209
    172 C33        80.2913   66.2910   39.8718 Y4         2 LUT      0.240937
    173 C34        79.0838   65.5728   39.8835 Y5         2 LUT     -0.218862
    174 C35        78.1419   65.4353   40.9095 Y6         2 LUT     -0.023547
    175 C36        88.8784   67.8015   35.0467 Y7         2 LUT     -0.393485
    176 C37        88.1943   65.4859   35.4906 Y7         2 LUT     -0.393485
    177 C38        85.3947   68.3200   32.1394 Y9         2 LUT     -0.387526
    178 C39        84.6327   68.6616   37.7749 W1         2 LUT     -0.322618
    179 C40        80.6479   67.3431   40.9023 W2         2 LUT     -0.358472
    180 H403       80.1801   68.2712   40.6722 R7         2 LUT      0.097720
    181 H402       80.2496   67.1401   41.8711 R7         2 LUT      0.097720
    182 H401       81.7769   67.3305   41.1352 R7         2 LUT      0.097720
    183 H393       85.2398   68.0819   38.5036 R4         2 LUT      0.082505
    184 H392       85.2668   69.3288   37.2467 R4         2 LUT      0.082505
    185 H391       83.9731   69.2925   38.2934 R4         2 LUT      0.082505
    186 H383       85.4893   69.4268   32.2214 R1         2 LUT      0.104030
    187 H382       85.0857   68.0026   31.1158 R1         2 LUT      0.104030
    188 H381       84.4846   67.9919   32.7567 R1         2 LUT      0.104030
    189 H373       87.6812   64.5538   35.2560 T4         2 LUT      0.089537
    190 H372       89.2588   65.2843   35.7515 T4         2 LUT      0.089537
    191 H371       87.7717   65.8455   36.4617 T4         2 LUT      0.089537
    192 H363       88.8729   68.5428   34.2060 T4         2 LUT      0.089537
    193 H362       88.4707   68.3100   35.9236 T4         2 LUT      0.089537
    194 H361       89.9102   67.5001   35.3436 T4         2 LUT      0.089537
    195 H222       89.9321   65.8516   33.5048 U2         2 LUT      0.127376
    196 H221       88.5398   64.9953   32.9802 U2         2 LUT      0.127376
    197 H203       74.1054   61.9838   40.6920 R7         2 LUT      0.087068
    198 H202       73.2651   63.4459   40.3939 R7         2 LUT      0.087068
    199 H201       74.7367   63.3174   39.7617 R7         2 LUT      0.087068
    200 H193       71.2892   60.7701   43.8264 R4         2 LUT      0.089716
    201 H192       69.7288   60.7464   44.6207 R4         2 LUT      0.089716
    202 H191       69.9983   61.9449   43.3518 R4         2 LUT      0.089716
    203 H183       66.4154   64.0781   47.1309 R1         2 LUT      0.094572
    204 H182       67.5766   65.5181   47.0964 R1         2 LUT      0.094572
    205 H181       67.8828   64.0774   46.1765 R1         2 LUT      0.094572
    206 H173       70.2122   62.4141   51.8473 T4         2 LUT      0.093752
    207 H172       71.0414   63.4318   50.7809 T4         2 LUT      0.093752
    208 H171       69.4560   63.9031   51.4476 T4         2 LUT      0.093752
    209 H163       69.5179   60.0259   49.4479 T4         2 LUT      0.093752
    210 H162       71.0325   61.0235   49.2028 T4         2 LUT      0.093752
    211 H161       70.5437   60.6047   50.8083 T4         2 LUT      0.093752
    212 HO3        67.1640   63.6843   52.3942 Q1         2 LUT      0.300121
    213 H8         71.1757   63.4743   46.8764 U7         2 LUT      0.080784
    214 H7         68.9119   61.5591   46.8541 U6         2 LUT      0.042190
    215 H42        66.3955   64.8234   49.3687 U5         2 LUT      0.145166
    216 H41        67.9692   65.1440   50.2252 U5         2 LUT      0.145166
    217 H35        78.2810   65.9392   41.8634 T3         2 LUT      0.077919
    218 H34        78.7990   65.1051   38.9308 T2         2 LUT      0.073626
    219 H32        80.7361   65.6050   37.8886 T1         2 LUT      0.092510
    220 H31        82.7684   67.3073   39.4119 U9         2 LUT      0.070048
    221 H30        82.4925   66.1520   36.7044 U8         2 LUT      0.085442
    222 H3         66.1070   62.7529   50.0748 U3         2 LUT     -0.031596
    223 H28        83.8668   66.8183   34.8439 U7         2 LUT      0.084728
    224 H27        86.4411   68.2692   35.6882 U6         2 LUT      0.087291
    225 H26        86.1345   66.0465   33.7953 Q6         2 LUT      0.075325
    226 H24        87.5336   67.9049   30.6873 Q5         2 LUT      0.094482
    227 H23        89.7260   67.6834   32.2923 U3         2 LUT     -0.024869
    228 H22        67.5802   61.1568   49.9363 U2         2 LUT      0.127376
    229 H21        68.1490   61.3369   51.4865 U2         2 LUT      0.127376
    230 H15        76.8174   64.1464   39.9361 T3         2 LUT      0.093200
    231 H14        76.1601   65.1091   42.9188 T2         2 LUT      0.068865
    232 H12        74.4596   64.2549   43.9418 T1         2 LUT      0.095507
    233 H11        72.4631   62.3884   42.6682 U9         2 LUT      0.068930
    234 H10        72.6484   63.7930   45.3245 U8         2 LUT      0.083911
    235 H1         89.9153   66.4085   30.2210 Q1         2 LUT      0.297311
@<TRIPOS>BOND
    1     6     1 1
    2     7     2 1
    3     8     3 1
    4     9     4 1
    5    11     4 1
    6    12     6 1
    7    13     9 1
    8    16     9 1
    9    25     5 1
   10    25    16 1
   11    26    10 1
   12    26    17 1
   13    27    18 1
   14    28    14 1
   15    28    19 1
   16    29    12 1
   17    30    13 1
   18    31    24 1
   19    32     1 1
   20    32    25 1
   21    33    21 1
   22    33    26 1
   23    34    22 1
   24    34    27 1
   25    35    23 1
   26    35    28 1
   27    36    12 1
   28    36    24 1
   29    37    13 1
   30    37    15 1
   31    38    31 1
   32    39    20 1
   33    39    32 1
   34    40     2 1
   35    40    33 1
   36    41     3 1
   37    41    34 1
   38    42     4 1
   39    42    35 1
   40    43    38 1
   41    44     5 1
   42    44    17 1
   43    44    39 1
   44    45    10 1
   45    45    18 1
   46    45    40 1
   47    46    19 1
   48    46    41 1
   49    47    14 1
   50    47    16 1
   51    47    42 1
   52    48    38 1
   53    49    48 1
   54    50    49 1
   55    51    50 1
   56    52    51 1
   57    53    51 1
   58    54    53 1
   59    55    54 1
   60    56    55 1
   61    57    56 1
   62    58    56 1
   63    59    58 1
   64    60    59 1
   65    61    60 1
   66    62    61 1
   67    63    61 1
   68    64    27 1
   69    64    46 1
   70    65     5 1
   71    65    10 1
   72    65    64 1
   73    65    14 1
   74    66    23 1
   75    67    23 1
   76    68    23 1
   77    69    22 1
   78    70    22 1
   79    71    22 1
   80    72    21 1
   81    73    21 1
   82    74    21 1
   83    75    20 1
   84    76    20 1
   85    77    20 1
   86    78    15 1
   87    79    15 1
   88    80    15 1
   89    81     8 1
   90    82     8 1
   91    83     8 1
   92    84     7 1
   93    85     7 1
   94    86     6 1
   95    87     6 1
   96    88     3 1
   97    89     3 1
   98    90     1 1
   99    91     1 1
  100    92    63 1
  101    93    63 1
  102    94    63 1
  103    95    62 1
  104    96    62 1
  105    97    62 1
  106    98    60 1
  107    99    60 1
  108   100    59 1
  109   101    59 1
  110   102    58 1
  111   103    58 1
  112   104    57 1
  113   105    57 1
  114   106    57 1
  115   107    55 1
  116   108    55 1
  117   109    54 1
  118   110    54 1
  119   111    53 1
  120   112    53 1
  121   113    19 1
  122   114    18 1
  123   115    17 1
  124   116     9 1
  125   117     2 1
  126   118    52 1
  127   119    52 1
  128   120    52 1
  129   121    51 1
  130   122    50 1
  131   123    50 1
  132   124    49 1
  133   125    49 1
  134   126    48 1
  135   127    48 1
  136   128    43 1
  137   129    43 1
  138   130    43 1
  139   131    39 1
  140   132    32 1
  141   133    31 1
  142   134    61 1
  143   135    56 1
  144   136    24 1
  145   137    24 1
  146   139   138 1
  147   140   139 1
  148   141   140 1
  149   142   140 1
  150   143   142 1
  151   144   138 1
  152   144   143 1
  153   145   144 1
  154   146   145 1
  155   147   146 1
  156   148   147 1
  157   149   148 1
  158   150   149 1
  159   151   150 1
  160   152   151 1
  161   153   152 1
  162   154   138 1
  163   155   138 1
  164   156   143 1
  165   157   147 1
  166   158   151 1
  167   160   159 1
  168   161   160 1
  169   162   161 1
  170   163   161 1
  171   164   163 1
  172   165   159 1
  173   165   164 1
  174   166   165 1
  175   167   166 1
  176   168   167 1
  177   169   168 1
  178   170   169 1
  179   171   170 1
  180   172   171 1
  181   173   172 1
  182   174   153 1
  183   174   173 1
  184   175   159 1
  185   176   159 1
  186   177   164 1
  187   178   168 1
  188   179   172 1
  189   180   179 1
  190   181   179 1
  191   182   179 1
  192   183   178 1
  193   184   178 1
  194   185   178 1
  195   186   177 1
  196   187   177 1
  197   188   177 1
  198   189   176 1
  199   190   176 1
  200   191   176 1
  201   192   175 1
  202   193   175 1
  203   194   175 1
  204   195   160 1
  205   196   160 1
  206   197   158 1
  207   198   158 1
  208   199   158 1
  209   200   157 1
  210   201   157 1
  211   202   157 1
  212   203   156 1
  213   204   156 1
  214   205   156 1
  215   206   155 1
  216   207   155 1
  217   208   155 1
  218   209   154 1
  219   210   154 1
  220   211   154 1
  221   212   141 1
  222   213   146 1
  223   214   145 1
  224   215   142 1
  225   216   142 1
  226   217   174 1
  227   218   173 1
  228   219   171 1
  229   220   170 1
  230   221   169 1
  231   222   140 1
  232   223   167 1
  233   224   166 1
  234   225   165 1
  235   226   163 1
  236   227   161 1
  237   228   139 1
  238   229   139 1
  239   230   153 1
  240   231   152 1
  241   232   150 1
  242   233   149 1
  243   234   148 1
  244   235   162 1
  245   65    153 1
  246   65    174 1
@<TRIPOS>SUBSTRUCTURE
      1 CLA               1 ****               0 ****  **** 
      2 LUT             138 ****               0 ****  **** 
