@<TRIPOS>MOLECULE
Cpptraj generated mol2 file.
  235   246     2     0     0
SMALL
USER_CHARGES


@<TRIPOS>ATOM
      1 CAA        78.4090   58.9120   33.8323 a2         1 CLA     -0.055900
      2 CAB        78.6059   62.1040   43.0547 c8         1 CLA     -0.148500
      3 CAC        71.7293   57.9203   42.7737 a2         1 CLA     -0.012600
      4 CAD        74.4347   55.8857   35.0691 ck         1 CLA      0.398800
      5 NA         77.4400   59.0330   37.3387 ns         1 CLA     -0.225500
      6 CBA        79.6129   58.9163   32.8724 a2         1 CLA     -0.135000
      7 CBB        77.9650   61.7062   44.1889 c0         1 CLA     -0.395200
      8 CBC        71.7048   56.3526   42.6786 a3         1 CLA     -0.037700
      9 CBD        75.8016   56.6285   34.6769 a1         1 CLA     -0.053900
     10 NB         77.3245   60.3560   39.9869 nm         1 CLA     -0.295700
     11 OBD        73.9388   54.9710   34.4083 o2         1 CLA     -0.494600
     12 CGA        80.0810   57.5211   32.5268 c4         1 CLA      0.827000
     13 CGD        76.7994   55.5195   34.4098 c4         1 CLA      0.655300
     14 ND         74.7454   58.0148   37.9815 nm         1 CLA     -0.291600
     15 CED        77.5508   53.4248   35.2057 a3         1 CLA      0.005400
     16 CHA        76.1025   57.5897   35.8169 cs         1 CLA     -0.123800
     17 CHB        79.3176   60.2927   38.4123 aa         1 CLA     -0.291900
     18 CHC        76.1029   60.5167   42.0171 aa         1 CLA     -0.090400
     19 CHD        73.1154   57.4450   39.7831 aa         1 CLA     -0.052000
     20 CMA        80.9044   58.5215   36.5539 a3         1 CLA     -0.230700
     21 CMB        80.6662   62.0806   40.7192 a3         1 CLA     -0.180800
     22 CMC        74.0907   59.6833   44.1914 a3         1 CLA     -0.134000
     23 CMD        71.7122   55.6420   37.4262 a3         1 CLA     -0.141100
     24 C1         81.0056   55.4701   33.4995 a2         1 CLA      0.023000
     25 C1A        77.2517   58.3748   36.1326 ac         1 CLA     -0.015100
     26 C1B        78.6318   60.7420   39.5927 cr         1 CLA      0.054700
     27 C1C        74.9181   59.7568   41.7308 cn         1 CLA     -0.005600
     28 C1D        73.6576   57.2073   38.4404 ap         1 CLA     -0.047300
     29 O1A        80.0137   57.0523   31.3904 o2         1 CLA     -0.610800
     30 O1D        77.6906   55.5345   33.5679 o2         1 CLA     -0.558200
     31 C2         81.5871   55.0296   34.8220 c8         1 CLA     -0.325100
     32 C2A        78.5783   58.3746   35.2987 a1         1 CLA      0.098600
     33 C2B        79.2452   61.5450   40.6762 cb         1 CLA      0.088500
     34 C2C        73.9521   59.3461   42.8013 cb         1 CLA      0.053700
     35 C2D        73.1123   56.3981   37.4059 cb         1 CLA      0.058900
     36 O2A        80.6674   56.8635   33.6040 o1         1 CLA     -0.437200
     37 O2D        76.5902   54.4773   35.2757 o1         1 CLA     -0.357600
     38 C3         82.5184   54.0586   35.1319 c5         1 CLA      0.031200
     39 C3A        79.5436   59.1877   36.2266 a1         1 CLA      0.166800
     40 C3B        78.3167   61.5163   41.7138 cb         1 CLA      0.035000
     41 C3C        72.9589   58.5425   42.2041 cb         1 CLA     -0.089900
     42 C3D        74.0396   56.4629   36.3392 cb         1 CLA     -0.035900
     43 C4         82.3013   52.7780   35.7503 a3         1 CLA     -0.053300
     44 C4A        78.7379   59.5361   37.3922 ac         1 CLA      0.001800
     45 C4B        77.2068   60.7843   41.2282 cn         1 CLA     -0.020900
     46 C4C        73.5893   58.2648   40.8131 cr         1 CLA     -0.044400
     47 C4D        75.0836   57.3930   36.7605 c6         1 CLA     -0.046000
     48 C5         84.0452   54.3342   34.9676 a2         1 CLA     -0.070400
     49 C6         84.3769   55.8429   35.1695 a2         1 CLA      0.043900
     50 C7         84.6153   56.1057   36.6910 a2         1 CLA     -0.150000
     51 C8         84.9067   57.5951   37.0534 a1         1 CLA      0.064200
     52 C9         86.1735   58.3002   36.4327 a3         1 CLA     -0.259300
     53 C10        84.8831   57.8007   38.5673 a2         1 CLA     -0.071900
     54 C11        83.7674   57.1072   39.4911 a2         1 CLA      0.014500
     55 C12        83.6796   57.6554   40.8845 a2         1 CLA     -0.112100
     56 C13        82.6333   56.8723   41.8042 a1         1 CLA      0.089200
     57 C14        81.1742   57.0591   41.3657 a3         1 CLA     -0.239100
     58 C15        82.8639   57.2026   43.2547 a2         1 CLA     -0.102200
     59 C16        82.8261   58.6939   43.6176 a2         1 CLA      0.023900
     60 C17        83.0954   58.9226   45.1111 a2         1 CLA     -0.105700
     61 C18        83.1139   60.4544   45.6016 a1         1 CLA      0.206800
     62 C19        81.8266   61.3048   45.3685 a3         1 CLA     -0.280100
     63 C20        83.4048   60.5020   47.0799 a3         1 CLA     -0.280100
     64 NC         74.7141   59.0397   40.6009 nx         1 CLA     -0.309200
     65 MG         75.9554   59.1925   38.9740 mg         1 CLA      0.895000
     66 HMD3       71.7017   54.9777   36.5258 dc         1 CLA      0.064300
     67 HMD2       71.6087   55.1206   38.3505 dc         1 CLA      0.064300
     68 HMD1       70.9906   56.4179   37.4144 dc         1 CLA      0.064300
     69 HMC3       75.1259   59.4805   44.5243 dc         1 CLA      0.052100
     70 HMC2       73.8145   60.7488   44.3442 dc         1 CLA      0.052100
     71 HMC1       73.4031   59.0238   44.6624 dc         1 CLA      0.052100
     72 HMB3       81.1240   62.5504   39.8082 dc         1 CLA      0.063600
     73 HMB2       80.7390   62.9212   41.4591 dc         1 CLA      0.063600
     74 HMB1       81.3305   61.3099   41.0050 dc         1 CLA      0.063600
     75 HMA3       81.5285   59.1627   37.1988 dc         1 CLA      0.058300
     76 HMA2       80.9318   57.5176   37.0413 dc         1 CLA      0.058300
     77 HMA1       81.3699   58.3195   35.5821 dc         1 CLA      0.058300
     78 HED3       77.3636   52.6322   35.8654 dc         1 CLA      0.079300
     79 HED2       77.6850   53.0526   34.2116 dc         1 CLA      0.079300
     80 HED1       78.4809   53.8924   35.4537 dc         1 CLA      0.079300
     81 HBC3       72.4549   55.8782   43.2373 dc         1 CLA      0.016300
     82 HBC2       70.8243   55.8787   43.1222 dc         1 CLA      0.016300
     83 HBC1       71.7523   55.9090   41.6698 dc         1 CLA      0.016300
     84 HBB2       78.1798   62.2208   45.1883 da         1 CLA      0.183000
     85 HBB1       77.5163   60.7236   44.3290 da         1 CLA      0.183000
     86 HBA2       79.2879   59.5172   32.0164 dc         1 CLA      0.029400
     87 HBA1       80.3914   59.3456   33.3732 dc         1 CLA      0.029400
     88 HAC2       71.6480   58.1838   43.8814 dc         1 CLA      0.029300
     89 HAC1       70.8380   58.3352   42.3415 dc         1 CLA      0.029300
     90 HAA2       77.6105   58.2809   33.4383 dc         1 CLA      0.028700
     91 HAA1       78.0793   59.9024   33.9525 dc         1 CLA      0.028700
     92 H203       83.2899   61.4814   47.4606 dc         1 CLA      0.065600
     93 H202       82.7578   59.8476   47.5306 dc         1 CLA      0.065600
     94 H201       84.4244   60.1972   47.2235 dc         1 CLA      0.065600
     95 H193       81.0885   60.9943   46.1585 dc         1 CLA      0.065600
     96 H192       82.0610   62.3176   45.4673 dc         1 CLA      0.065600
     97 H191       81.4607   61.1357   44.3581 dc         1 CLA      0.065600
     98 H172       82.2349   58.4711   45.7110 dc         1 CLA      0.027600
     99 H171       84.0545   58.4851   45.3868 dc         1 CLA      0.027600
    100 H162       83.4858   59.4494   43.0788 dc         1 CLA      0.002900
    101 H161       81.8205   59.1074   43.3505 dc         1 CLA      0.002900
    102 H152       82.0592   56.6589   43.8524 dc         1 CLA      0.029100
    103 H151       83.8253   56.9120   43.5245 dc         1 CLA      0.029100
    104 H143       80.8943   58.0558   41.1582 dc         1 CLA      0.063600
    105 H142       81.1285   56.5022   40.4470 dc         1 CLA      0.063600
    106 H141       80.5184   56.5336   42.0535 dc         1 CLA      0.063600
    107 H122       84.7027   57.4502   41.2654 dc         1 CLA      0.032500
    108 H121       83.5920   58.7278   40.9403 dc         1 CLA      0.032500
    109 H112       82.8719   57.2817   38.9269 dc         1 CLA      0.006600
    110 H111       83.9686   56.0546   39.5247 dc         1 CLA      0.006600
    111 H102       85.8937   57.4216   38.9072 dc         1 CLA      0.024100
    112 H101       84.8686   58.9100   38.6194 dc         1 CLA      0.024100
    113 HHD        72.1820   56.9821   40.0247 da         1 CLA      0.174300
    114 HHC        75.9610   60.8771   42.9994 da         1 CLA      0.136800
    115 HHB        80.3306   60.6096   38.3370 da         1 CLA      0.138300
    116 HBD        75.7264   57.1733   33.7954 dc         1 CLA      0.107700
    117 HAB        79.2358   62.9836   43.0940 da         1 CLA      0.155200
    118 H93        85.9946   58.5868   35.4283 dc         1 CLA      0.069500
    119 H92        86.3839   59.1154   37.0230 dc         1 CLA      0.069500
    120 H91        87.0520   57.6118   36.4691 dc         1 CLA      0.069500
    121 H8         84.0532   58.1175   36.5958 dc         1 CLA      0.029300
    122 H72        83.8008   55.6758   37.2290 dc         1 CLA      0.044400
    123 H71        85.4686   55.4765   37.0217 dc         1 CLA      0.044400
    124 H62        85.3152   56.0548   34.5891 dc         1 CLA      0.015600
    125 H61        83.5633   56.4995   34.7599 dc         1 CLA      0.015600
    126 H52        84.6953   53.6890   35.4977 dc         1 CLA      0.033200
    127 H51        84.2924   54.2153   33.9435 dc         1 CLA      0.033200
    128 H43        83.2019   52.2419   35.5543 dc         1 CLA      0.037000
    129 H42        82.0239   52.8924   36.7645 dc         1 CLA      0.037000
    130 H41        81.5356   52.1435   35.2575 dc         1 CLA      0.037000
    131 H3A        79.7901   60.1373   35.6829 dc         1 CLA      0.041100
    132 H2A        78.8555   57.3570   35.3677 dc         1 CLA      0.083100
    133 H2         81.4862   55.7519   35.6185 da         1 CLA      0.180900
    134 H18        83.8428   60.9947   45.0479 dc         1 CLA     -0.003900
    135 H13        82.7653   55.8270   41.7214 dc         1 CLA      0.019700
    136 H12        80.0614   54.8905   33.3766 dc         1 CLA      0.120400
    137 H11        81.7272   55.3994   32.7175 dc         1 CLA      0.120400
    138 C1         68.3423   61.1204   49.8265 Z1         2 LUT      0.509236
    139 C2         68.3079   61.8215   51.1164 Z2         2 LUT     -0.434695
    140 C3         66.9863   62.4515   51.4211 Z3         2 LUT      0.437453
    141 O3         67.0373   63.1661   52.6815 S1         2 LUT     -0.547129
    142 C4         66.5626   63.3693   50.2740 Z4         2 LUT     -0.468603
    143 C5         66.9062   62.9067   48.8866 Z5         2 LUT      0.279246
    144 C6         67.7964   61.9156   48.6181 Z6         2 LUT     -0.305473
    145 C7         68.4370   61.6182   47.3635 Z7         2 LUT      0.069402
    146 C8         69.3614   62.4107   46.6854 Z8         2 LUT     -0.191631
    147 C9         70.0999   62.1903   45.4656 Z9         2 LUT      0.196698
    148 C10        71.0932   63.0475   44.9986 Y1         2 LUT     -0.208611
    149 C11        71.9046   62.9756   43.7556 Y2         2 LUT      0.030784
    150 C12        73.1153   63.5540   43.4933 Y3         2 LUT     -0.220316
    151 C13        73.9167   63.4378   42.2410 Y4         2 LUT      0.215937
    152 C14        75.1558   64.0314   42.3112 Y5         2 LUT     -0.185793
    153 C15        76.1099   64.1336   41.2582 Y6         2 LUT     -0.057835
    154 C16        67.5825   59.7811   49.8790 Y7         2 LUT     -0.405615
    155 C17        69.8302   60.5635   49.7477 Y7         2 LUT     -0.405615
    156 C18        66.3671   63.8965   47.8990 Y9         2 LUT     -0.369639
    157 C19        69.7192   60.8788   44.7420 W1         2 LUT     -0.333362
    158 C20        73.3083   62.9617   40.9240 W2         2 LUT     -0.323439
    159 C21        87.3154   66.1093   35.0633 Z1         2 LUT      0.406104
    160 C22        88.1490   65.6064   33.8858 Z2         2 LUT     -0.404965
    161 C23        88.2999   66.6658   32.8206 Z3         2 LUT      0.391255
    162 O23        89.0102   66.1265   31.7150 S1         2 LUT     -0.528210
    163 C24        87.0437   67.3486   32.4318 W6         2 LUT     -0.258361
    164 C25        85.9321   67.2999   33.1753 Z5         2 LUT      0.133546
    165 C26        85.8412   66.5271   34.5270 W8         2 LUT     -0.147008
    166 C27        84.9743   67.2246   35.5933 Z7         2 LUT      0.023843
    167 C28        84.2127   66.5786   36.4749 Z8         2 LUT     -0.216987
    168 C29        83.5064   67.0245   37.6383 Z9         2 LUT      0.206524
    169 C30        82.5060   66.1509   38.0581 Y1         2 LUT     -0.215556
    170 C31        81.5682   66.3888   39.1980 Y2         2 LUT      0.025142
    171 C32        80.4136   65.6836   39.4107 Y3         2 LUT     -0.212209
    172 C33        79.4898   65.7225   40.5318 Y4         2 LUT      0.240937
    173 C34        78.2910   64.9904   40.4170 Y5         2 LUT     -0.218862
    174 C35        77.3051   64.7627   41.4400 Y6         2 LUT     -0.023547
    175 C36        88.1043   67.2680   35.8266 Y7         2 LUT     -0.393485
    176 C37        87.3784   64.8601   35.9586 Y7         2 LUT     -0.393485
    177 C38        84.5600   67.8234   32.6164 Y9         2 LUT     -0.387526
    178 C39        84.1253   68.2157   38.3404 W1         2 LUT     -0.322618
    179 C40        79.8896   66.4726   41.7355 W2         2 LUT     -0.358472
    180 H403       80.9317   66.3319   41.9832 R7         2 LUT      0.097720
    181 H402       79.7476   67.5555   41.6489 R7         2 LUT      0.097720
    182 H401       79.2347   66.3429   42.6049 R7         2 LUT      0.097720
    183 H393       83.4877   68.6129   39.1393 R4         2 LUT      0.082505
    184 H392       84.9654   67.8182   38.8528 R4         2 LUT      0.082505
    185 H391       84.4335   69.0416   37.7325 R4         2 LUT      0.082505
    186 H383       84.0696   68.5738   33.2028 R1         2 LUT      0.104030
    187 H382       84.7457   68.2326   31.6440 R1         2 LUT      0.104030
    188 H381       83.8618   66.9688   32.5158 R1         2 LUT      0.104030
    189 H373       88.3480   64.5730   36.2908 T4         2 LUT      0.089537
    190 H372       86.8919   65.0259   36.9930 T4         2 LUT      0.089537
    191 H371       86.6642   64.0896   35.6026 T4         2 LUT      0.089537
    192 H363       89.1282   66.9109   36.0747 T4         2 LUT      0.089537
    193 H362       88.0695   68.1396   35.1154 T4         2 LUT      0.089537
    194 H361       87.5669   67.5230   36.7231 T4         2 LUT      0.089537
    195 H222       89.1664   65.3359   34.1618 U2         2 LUT      0.127376
    196 H221       87.6707   64.7070   33.3805 U2         2 LUT      0.127376
    197 H203       73.5930   61.9137   40.7036 R7         2 LUT      0.087068
    198 H202       72.2199   63.0999   40.8177 R7         2 LUT      0.087068
    199 H201       73.6869   63.6405   40.1721 R7         2 LUT      0.087068
    200 H193       68.6831   60.9509   44.4336 R4         2 LUT      0.089716
    201 H192       70.4090   60.7100   43.8798 R4         2 LUT      0.089716
    202 H191       69.9002   60.1612   45.5316 R4         2 LUT      0.089716
    203 H183       65.2336   63.9400   47.9037 R1         2 LUT      0.094572
    204 H182       66.7511   64.8922   48.0920 R1         2 LUT      0.094572
    205 H181       66.5712   63.7496   46.7844 R1         2 LUT      0.094572
    206 H173       69.9070   59.8587   49.0087 T4         2 LUT      0.093752
    207 H172       70.4930   61.3622   49.3992 T4         2 LUT      0.093752
    208 H171       70.1455   60.1714   50.6974 T4         2 LUT      0.093752
    209 H163       67.8224   59.0916   50.6418 T4         2 LUT      0.093752
    210 H162       66.5416   60.0904   50.1335 T4         2 LUT      0.093752
    211 H161       67.6037   59.2453   48.8979 T4         2 LUT      0.093752
    212 HO3        66.6471   62.6180   53.4040 Q1         2 LUT      0.300121
    213 H8         69.5131   63.3909   47.1642 U7         2 LUT      0.080784
    214 H7         68.3758   60.5884   47.0373 U6         2 LUT      0.042190
    215 H42        65.5024   63.6402   50.2796 U5         2 LUT      0.145166
    216 H41        66.8528   64.4128   50.4506 U5         2 LUT      0.145166
    217 H35        77.3928   65.2932   42.4130 T3         2 LUT      0.077919
    218 H34        78.0260   64.5136   39.5002 T2         2 LUT      0.073626
    219 H32        80.1442   65.0509   38.5995 T1         2 LUT      0.092510
    220 H31        81.8947   67.0807   39.9075 U9         2 LUT      0.070048
    221 H30        82.1718   65.4138   37.2860 U8         2 LUT      0.085442
    222 H3         66.2343   61.6519   51.5117 U3         2 LUT     -0.031596
    223 H28        83.9815   65.5320   36.1460 U7         2 LUT      0.084728
    224 H27        85.1488   68.2626   35.7793 U6         2 LUT      0.087291
    225 H26        85.3533   65.5678   34.3822 Q6         2 LUT      0.075325
    226 H24        86.8895   67.9427   31.5408 Q5         2 LUT      0.094482
    227 H23        89.0017   67.3648   33.3298 U3         2 LUT     -0.024869
    228 H22        68.6110   61.0928   51.9294 U2         2 LUT      0.127376
    229 H21        69.0516   62.6532   51.1765 U2         2 LUT      0.127376
    230 H15        75.8647   63.6811   40.2397 T3         2 LUT      0.093200
    231 H14        75.3928   64.2840   43.2911 T2         2 LUT      0.068865
    232 H12        73.4836   64.1612   44.3100 T1         2 LUT      0.095507
    233 H11        71.4100   62.2471   43.1450 U9         2 LUT      0.068930
    234 H10        71.2627   63.8398   45.6985 U8         2 LUT      0.083911
    235 H1         88.4533   65.7168   30.9774 Q1         2 LUT      0.297311
@<TRIPOS>BOND
    1     6     1 1
    2     7     2 1
    3     8     3 1
    4     9     4 1
    5    11     4 1
    6    12     6 1
    7    13     9 1
    8    16     9 1
    9    25     5 1
   10    25    16 1
   11    26    10 1
   12    26    17 1
   13    27    18 1
   14    28    14 1
   15    28    19 1
   16    29    12 1
   17    30    13 1
   18    31    24 1
   19    32     1 1
   20    32    25 1
   21    33    21 1
   22    33    26 1
   23    34    22 1
   24    34    27 1
   25    35    23 1
   26    35    28 1
   27    36    12 1
   28    36    24 1
   29    37    13 1
   30    37    15 1
   31    38    31 1
   32    39    20 1
   33    39    32 1
   34    40     2 1
   35    40    33 1
   36    41     3 1
   37    41    34 1
   38    42     4 1
   39    42    35 1
   40    43    38 1
   41    44     5 1
   42    44    17 1
   43    44    39 1
   44    45    10 1
   45    45    18 1
   46    45    40 1
   47    46    19 1
   48    46    41 1
   49    47    14 1
   50    47    16 1
   51    47    42 1
   52    48    38 1
   53    49    48 1
   54    50    49 1
   55    51    50 1
   56    52    51 1
   57    53    51 1
   58    54    53 1
   59    55    54 1
   60    56    55 1
   61    57    56 1
   62    58    56 1
   63    59    58 1
   64    60    59 1
   65    61    60 1
   66    62    61 1
   67    63    61 1
   68    64    27 1
   69    64    46 1
   70    65     5 1
   71    65    10 1
   72    65    64 1
   73    65    14 1
   74    66    23 1
   75    67    23 1
   76    68    23 1
   77    69    22 1
   78    70    22 1
   79    71    22 1
   80    72    21 1
   81    73    21 1
   82    74    21 1
   83    75    20 1
   84    76    20 1
   85    77    20 1
   86    78    15 1
   87    79    15 1
   88    80    15 1
   89    81     8 1
   90    82     8 1
   91    83     8 1
   92    84     7 1
   93    85     7 1
   94    86     6 1
   95    87     6 1
   96    88     3 1
   97    89     3 1
   98    90     1 1
   99    91     1 1
  100    92    63 1
  101    93    63 1
  102    94    63 1
  103    95    62 1
  104    96    62 1
  105    97    62 1
  106    98    60 1
  107    99    60 1
  108   100    59 1
  109   101    59 1
  110   102    58 1
  111   103    58 1
  112   104    57 1
  113   105    57 1
  114   106    57 1
  115   107    55 1
  116   108    55 1
  117   109    54 1
  118   110    54 1
  119   111    53 1
  120   112    53 1
  121   113    19 1
  122   114    18 1
  123   115    17 1
  124   116     9 1
  125   117     2 1
  126   118    52 1
  127   119    52 1
  128   120    52 1
  129   121    51 1
  130   122    50 1
  131   123    50 1
  132   124    49 1
  133   125    49 1
  134   126    48 1
  135   127    48 1
  136   128    43 1
  137   129    43 1
  138   130    43 1
  139   131    39 1
  140   132    32 1
  141   133    31 1
  142   134    61 1
  143   135    56 1
  144   136    24 1
  145   137    24 1
  146   139   138 1
  147   140   139 1
  148   141   140 1
  149   142   140 1
  150   143   142 1
  151   144   138 1
  152   144   143 1
  153   145   144 1
  154   146   145 1
  155   147   146 1
  156   148   147 1
  157   149   148 1
  158   150   149 1
  159   151   150 1
  160   152   151 1
  161   153   152 1
  162   154   138 1
  163   155   138 1
  164   156   143 1
  165   157   147 1
  166   158   151 1
  167   160   159 1
  168   161   160 1
  169   162   161 1
  170   163   161 1
  171   164   163 1
  172   165   159 1
  173   165   164 1
  174   166   165 1
  175   167   166 1
  176   168   167 1
  177   169   168 1
  178   170   169 1
  179   171   170 1
  180   172   171 1
  181   173   172 1
  182   174   153 1
  183   174   173 1
  184   175   159 1
  185   176   159 1
  186   177   164 1
  187   178   168 1
  188   179   172 1
  189   180   179 1
  190   181   179 1
  191   182   179 1
  192   183   178 1
  193   184   178 1
  194   185   178 1
  195   186   177 1
  196   187   177 1
  197   188   177 1
  198   189   176 1
  199   190   176 1
  200   191   176 1
  201   192   175 1
  202   193   175 1
  203   194   175 1
  204   195   160 1
  205   196   160 1
  206   197   158 1
  207   198   158 1
  208   199   158 1
  209   200   157 1
  210   201   157 1
  211   202   157 1
  212   203   156 1
  213   204   156 1
  214   205   156 1
  215   206   155 1
  216   207   155 1
  217   208   155 1
  218   209   154 1
  219   210   154 1
  220   211   154 1
  221   212   141 1
  222   213   146 1
  223   214   145 1
  224   215   142 1
  225   216   142 1
  226   217   174 1
  227   218   173 1
  228   219   171 1
  229   220   170 1
  230   221   169 1
  231   222   140 1
  232   223   167 1
  233   224   166 1
  234   225   165 1
  235   226   163 1
  236   227   161 1
  237   228   139 1
  238   229   139 1
  239   230   153 1
  240   231   152 1
  241   232   150 1
  242   233   149 1
  243   234   148 1
  244   235   162 1
  245   65    153 1
  246   65    174 1
@<TRIPOS>SUBSTRUCTURE
      1 CLA               1 ****               0 ****  **** 
      2 LUT             138 ****               0 ****  **** 
