@<TRIPOS>MOLECULE
Cpptraj generated mol2 file.
  235   246     2     0     0
SMALL
USER_CHARGES


@<TRIPOS>ATOM
      1 CAA        76.9150   58.0921   33.4867 a2         1 CLA     -0.055900
      2 CAB        76.7465   61.6009   42.4438 c8         1 CLA     -0.148500
      3 CAC        69.7840   57.5371   41.7518 a2         1 CLA     -0.012600
      4 CAD        72.7162   55.4974   34.5575 ck         1 CLA      0.398800
      5 NA         75.8629   58.3181   36.8172 ns         1 CLA     -0.225500
      6 CBA        78.1786   57.8448   32.6672 a2         1 CLA     -0.135000
      7 CBB        77.8448   62.0883   42.9928 c0         1 CLA     -0.395200
      8 CBC        70.0395   56.0689   41.7897 a3         1 CLA     -0.037700
      9 CBD        74.1103   56.1304   34.2465 a1         1 CLA     -0.053900
     10 NB         75.5982   59.8299   39.4664 nm         1 CLA     -0.295700
     11 OBD        72.0595   54.7798   33.8122 o2         1 CLA     -0.494600
     12 CGA        78.6536   56.4757   32.2134 c4         1 CLA      0.827000
     13 CGD        75.0853   55.0311   33.8912 c4         1 CLA      0.655300
     14 ND         73.0700   57.5536   37.3770 nm         1 CLA     -0.291600
     15 CED        76.0236   52.9125   34.5253 a3         1 CLA      0.005400
     16 CHA        74.4872   56.9984   35.4187 cs         1 CLA     -0.123800
     17 CHB        77.5463   59.7360   37.8938 aa         1 CLA     -0.291900
     18 CHC        74.2604   59.9798   41.5597 aa         1 CLA     -0.090400
     19 CHD        71.1063   57.4622   38.8244 aa         1 CLA     -0.052000
     20 CMA        79.2210   57.6182   36.4054 a3         1 CLA     -0.230700
     21 CMB        78.7837   61.6701   39.9768 a3         1 CLA     -0.180800
     22 CMC        71.8119   59.3865   43.5117 a3         1 CLA     -0.134000
     23 CMD        69.9637   55.4142   36.7341 a3         1 CLA     -0.141100
     24 C1         79.5694   54.4174   33.2386 a2         1 CLA      0.023000
     25 C1A        75.6747   57.5981   35.6652 ac         1 CLA     -0.015100
     26 C1B        76.8933   60.1025   39.1193 cr         1 CLA      0.054700
     27 C1C        73.0922   59.2910   41.2196 cn         1 CLA     -0.005600
     28 C1D        71.8123   57.1229   37.6876 ap         1 CLA     -0.047300
     29 O1A        78.2929   55.8778   31.1552 o2         1 CLA     -0.610800
     30 O1D        76.0112   55.1316   33.0821 o2         1 CLA     -0.558200
     31 C2         79.8689   54.0505   34.6488 c8         1 CLA     -0.325100
     32 C2A        76.9682   57.5046   34.9033 a1         1 CLA      0.098600
     33 C2B        77.4735   60.9893   40.1038 cb         1 CLA      0.088500
     34 C2C        71.9040   59.0183   42.0621 cb         1 CLA      0.053700
     35 C2D        71.2731   56.2362   36.6733 cb         1 CLA      0.058900
     36 O2A        79.3359   55.8255   33.3120 o1         1 CLA     -0.437200
     37 O2D        75.0342   53.9196   34.7234 o1         1 CLA     -0.357600
     38 C3         80.6373   52.9789   34.9715 c5         1 CLA      0.031200
     39 C3A        77.9870   58.3182   35.8117 a1         1 CLA      0.166800
     40 C3B        76.6101   60.9626   41.2285 cb         1 CLA      0.035000
     41 C3C        71.0376   58.2476   41.2934 cb         1 CLA     -0.089900
     42 C3D        72.3427   56.1705   35.7630 cb         1 CLA     -0.035900
     43 C4         80.0656   51.6515   35.3679 a3         1 CLA     -0.053300
     44 C4A        77.0947   58.8255   36.9182 ac         1 CLA      0.001800
     45 C4B        75.4144   60.2528   40.7568 cn         1 CLA     -0.020900
     46 C4C        71.6114   58.1564   39.9756 cr         1 CLA     -0.044400
     47 C4D        73.3552   57.0201   36.2299 c6         1 CLA     -0.046000
     48 C5         82.1497   52.9091   34.8117 a2         1 CLA     -0.070400
     49 C6         82.8794   54.2580   35.1240 a2         1 CLA      0.043900
     50 C7         82.6888   54.6465   36.6328 a2         1 CLA     -0.150000
     51 C8         83.1217   56.0655   37.0602 a1         1 CLA      0.064200
     52 C9         84.5904   56.3396   36.6796 a3         1 CLA     -0.259300
     53 C10        82.8778   56.4079   38.5756 a2         1 CLA     -0.071900
     54 C11        81.4695   56.2915   39.0990 a2         1 CLA      0.014500
     55 C12        81.3535   57.1276   40.4018 a2         1 CLA     -0.112100
     56 C13        80.0121   57.1308   41.1737 a1         1 CLA      0.089200
     57 C14        78.9037   57.9532   40.4970 a3         1 CLA     -0.239100
     58 C15        80.1829   57.4926   42.6909 a2         1 CLA     -0.102200
     59 C16        80.8132   58.7909   43.0679 a2         1 CLA      0.023900
     60 C17        81.0244   58.8184   44.6193 a2         1 CLA     -0.105700
     61 C18        81.7276   60.1152   45.0772 a1         1 CLA      0.206800
     62 C19        83.2715   59.9692   44.9377 a3         1 CLA     -0.280100
     63 C20        81.2799   61.4802   44.3812 a3         1 CLA     -0.280100
     64 NC         72.8342   58.7921   40.0073 nx         1 CLA     -0.309200
     65 MG         74.3117   58.8082   38.3118 mg         1 CLA      0.895000
     66 HMD3       69.8306   54.6378   35.9516 dc         1 CLA      0.064300
     67 HMD2       70.1980   54.8314   37.6294 dc         1 CLA      0.064300
     68 HMD1       69.1881   56.1061   36.8896 dc         1 CLA      0.064300
     69 HMC3       72.1866   60.3740   43.5461 dc         1 CLA      0.052100
     70 HMC2       70.7470   59.4058   43.8080 dc         1 CLA      0.052100
     71 HMC1       72.4630   58.7924   44.1565 dc         1 CLA      0.052100
     72 HMB3       78.9909   62.0974   39.0303 dc         1 CLA      0.063600
     73 HMB2       78.9244   62.5112   40.6529 dc         1 CLA      0.063600
     74 HMB1       79.5629   60.9498   39.9963 dc         1 CLA      0.063600
     75 HMA3       79.9083   57.1592   35.6918 dc         1 CLA      0.058300
     76 HMA2       79.7655   58.4332   36.8868 dc         1 CLA      0.058300
     77 HMA1       79.1253   56.8774   37.2343 dc         1 CLA      0.058300
     78 HED3       75.8601   52.0879   35.2771 dc         1 CLA      0.079300
     79 HED2       76.0293   52.5207   33.4931 dc         1 CLA      0.079300
     80 HED1       76.9712   53.3890   34.7159 dc         1 CLA      0.079300
     81 HBC3       70.0873   55.6655   40.7577 dc         1 CLA      0.016300
     82 HBC2       70.9515   55.8515   42.2924 dc         1 CLA      0.016300
     83 HBC1       69.3065   55.4437   42.2908 dc         1 CLA      0.016300
     84 HBB2       77.8003   62.7526   43.9007 da         1 CLA      0.183000
     85 HBB1       78.8916   61.8541   42.6611 da         1 CLA      0.183000
     86 HBA2       77.9763   58.3637   31.7982 dc         1 CLA      0.029400
     87 HBA1       79.0505   58.3058   33.0469 dc         1 CLA      0.029400
     88 HAC2       69.5021   57.9200   42.6907 dc         1 CLA      0.029300
     89 HAC1       68.9551   57.7393   41.0392 dc         1 CLA      0.029300
     90 HAA2       76.0049   57.7532   33.0045 dc         1 CLA      0.028700
     91 HAA1       76.8219   59.1859   33.6346 dc         1 CLA      0.028700
     92 H203       81.8134   62.2613   44.8648 dc         1 CLA      0.065600
     93 H202       81.5332   61.4338   43.3240 dc         1 CLA      0.065600
     94 H201       80.1491   61.6042   44.4185 dc         1 CLA      0.065600
     95 H193       83.7692   60.8680   45.3094 dc         1 CLA      0.065600
     96 H192       83.7605   59.0657   45.3897 dc         1 CLA      0.065600
     97 H191       83.4476   59.9182   43.8535 dc         1 CLA      0.065600
     98 H172       79.9997   58.6673   45.0494 dc         1 CLA      0.027600
     99 H171       81.6350   57.9846   44.9410 dc         1 CLA      0.027600
    100 H162       81.6969   58.9271   42.4738 dc         1 CLA      0.002900
    101 H161       80.2020   59.6553   42.6752 dc         1 CLA      0.002900
    102 H152       79.1693   57.4371   43.1530 dc         1 CLA      0.029100
    103 H151       80.6639   56.6067   43.2131 dc         1 CLA      0.029100
    104 H143       79.1352   59.0408   40.5827 dc         1 CLA      0.063600
    105 H142       78.7008   57.5975   39.4867 dc         1 CLA      0.063600
    106 H141       78.0417   57.8636   41.1501 dc         1 CLA      0.063600
    107 H122       82.0361   56.5963   41.0745 dc         1 CLA      0.032500
    108 H121       81.7613   58.1439   40.4304 dc         1 CLA      0.032500
    109 H112       80.9182   56.8748   38.3868 dc         1 CLA      0.006600
    110 H111       81.0763   55.3219   39.2667 dc         1 CLA      0.006600
    111 H102       83.6441   55.9173   39.1831 dc         1 CLA      0.024100
    112 H101       83.1231   57.4184   38.6337 dc         1 CLA      0.024100
    113 HHD        70.0447   57.1342   38.8814 da         1 CLA      0.174300
    114 HHC        74.3865   60.3242   42.6298 da         1 CLA      0.136800
    115 HHB        78.5165   60.2334   37.8751 da         1 CLA      0.138300
    116 HBD        73.9751   56.7032   33.2291 dc         1 CLA      0.107700
    117 HAB        75.9377   61.8498   43.1260 da         1 CLA      0.155200
    118 H93        84.7110   56.2665   35.5978 dc         1 CLA      0.069500
    119 H92        84.8586   57.3621   36.9456 dc         1 CLA      0.069500
    120 H91        85.3118   55.7213   37.1860 dc         1 CLA      0.069500
    121 H8         82.4349   56.6793   36.5916 dc         1 CLA      0.029300
    122 H72        81.6442   54.6017   37.0277 dc         1 CLA      0.044400
    123 H71        83.2412   53.8686   37.1771 dc         1 CLA      0.044400
    124 H62        83.9689   53.9722   35.2475 dc         1 CLA      0.015600
    125 H61        82.7387   55.0514   34.3592 dc         1 CLA      0.015600
    126 H52        82.5470   52.1100   35.4913 dc         1 CLA      0.033200
    127 H51        82.3350   52.6177   33.8261 dc         1 CLA      0.033200
    128 H43        78.9675   51.7121   35.1320 dc         1 CLA      0.037000
    129 H42        80.4240   50.9069   34.6566 dc         1 CLA      0.037000
    130 H41        80.2419   51.5125   36.4539 dc         1 CLA      0.037000
    131 H3A        78.3525   59.1964   35.3020 dc         1 CLA      0.041100
    132 H2A        77.3791   56.4837   34.8440 dc         1 CLA      0.083100
    133 H2         79.5581   54.7744   35.3557 da         1 CLA      0.180900
    134 H18        81.5145   60.0498   46.1040 dc         1 CLA     -0.003900
    135 H13        79.6435   56.1239   41.1874 dc         1 CLA      0.019700
    136 H12        78.7923   53.7906   32.8234 dc         1 CLA      0.120400
    137 H11        80.4532   54.1388   32.6029 dc         1 CLA      0.120400
    138 C1         67.0043   61.6286   49.8393 Z1         2 LUT      0.509236
    139 C2         67.3618   62.8059   50.7639 Z2         2 LUT     -0.434695
    140 C3         66.2301   63.8555   50.8922 Z3         2 LUT      0.437453
    141 O3         66.8448   65.1309   51.1750 S1         2 LUT     -0.547129
    142 C4         65.2829   63.8594   49.6766 Z4         2 LUT     -0.468603
    143 C5         65.8680   63.3476   48.4009 Z5         2 LUT      0.279246
    144 C6         66.6011   62.1784   48.4456 Z6         2 LUT     -0.305473
    145 C7         67.4264   61.7280   47.2988 Z7         2 LUT      0.069402
    146 C8         68.2084   62.3380   46.4749 Z8         2 LUT     -0.191631
    147 C9         68.8970   61.8074   45.3385 Z9         2 LUT      0.196698
    148 C10        69.7604   62.6327   44.8147 Y1         2 LUT     -0.208611
    149 C11        70.4597   62.5249   43.5237 Y2         2 LUT      0.030784
    150 C12        71.3724   63.4331   43.1220 Y3         2 LUT     -0.220316
    151 C13        72.1940   63.2566   41.9639 Y4         2 LUT      0.215937
    152 C14        73.4494   63.9487   41.9036 Y5         2 LUT     -0.185793
    153 C15        74.4567   63.9106   40.9612 Y6         2 LUT     -0.057835
    154 C16        65.9550   60.7621   50.5273 Y7         2 LUT     -0.405615
    155 C17        68.3235   60.7790   49.7865 Y7         2 LUT     -0.405615
    156 C18        65.7582   64.4263   47.3617 Y9         2 LUT     -0.369639
    157 C19        68.2195   60.6407   44.6423 W1         2 LUT     -0.333362
    158 C20        71.5796   62.4854   40.9089 W2         2 LUT     -0.323439
    159 C21        86.0035   64.4332   34.6104 Z1         2 LUT      0.406104
    160 C22        86.5177   63.7939   33.3814 Z2         2 LUT     -0.404965
    161 C23        86.5369   64.6545   32.1196 Z3         2 LUT      0.391255
    162 O23        86.5767   63.7406   31.0317 S1         2 LUT     -0.528210
    163 C24        85.2473   65.4694   31.9666 W6         2 LUT     -0.258361
    164 C25        84.3658   65.7771   32.8989 Z5         2 LUT      0.133546
    165 C26        84.5069   65.0584   34.3094 W8         2 LUT     -0.147008
    166 C27        83.8085   65.7308   35.4703 Z7         2 LUT      0.023843
    167 C28        82.5677   65.4444   35.9365 Z8         2 LUT     -0.216987
    168 C29        81.8473   65.8188   37.1835 Z9         2 LUT      0.206524
    169 C30        80.7701   65.0587   37.4692 Y1         2 LUT     -0.215556
    170 C31        79.9546   65.2427   38.6585 Y2         2 LUT      0.025142
    171 C32        78.7340   64.7983   38.8167 Y3         2 LUT     -0.212209
    172 C33        77.9125   65.0502   39.9782 Y4         2 LUT      0.240937
    173 C34        76.6130   64.6222   40.0225 Y5         2 LUT     -0.218862
    174 C35        75.6659   64.5845   41.1417 Y6         2 LUT     -0.023547
    175 C36        87.0712   65.4845   35.1729 Y7         2 LUT     -0.393485
    176 C37        86.1251   63.3846   35.6526 Y7         2 LUT     -0.393485
    177 C38        83.2071   66.6560   32.6826 Y9         2 LUT     -0.387526
    178 C39        82.2337   67.0110   38.0096 W1         2 LUT     -0.322618
    179 C40        78.5095   65.7547   41.1525 W2         2 LUT     -0.358472
    180 H403       78.9060   66.7719   40.8016 R7         2 LUT      0.097720
    181 H402       77.9299   65.9693   42.0351 R7         2 LUT      0.097720
    182 H401       79.3223   65.1701   41.5136 R7         2 LUT      0.097720
    183 H393       82.5234   66.7154   39.0894 R4         2 LUT      0.082505
    184 H392       83.1710   67.4384   37.5539 R4         2 LUT      0.082505
    185 H391       81.4799   67.7120   38.2128 R4         2 LUT      0.082505
    186 H383       83.1082   67.1062   31.6814 R1         2 LUT      0.104030
    187 H382       82.2572   66.1285   32.8066 R1         2 LUT      0.104030
    188 H381       83.2700   67.5294   33.3102 R1         2 LUT      0.104030
    189 H373       85.6113   62.4872   35.3484 T4         2 LUT      0.089537
    190 H372       87.1508   63.1413   35.8894 T4         2 LUT      0.089537
    191 H371       85.5240   63.7161   36.5407 T4         2 LUT      0.089537
    192 H363       88.0398   65.0435   34.9551 T4         2 LUT      0.089537
    193 H362       87.1080   66.4099   34.5789 T4         2 LUT      0.089537
    194 H361       87.0619   65.8650   36.1963 T4         2 LUT      0.089537
    195 H222       87.4797   63.3789   33.5893 U2         2 LUT      0.127376
    196 H221       85.8882   62.9853   33.1073 U2         2 LUT      0.127376
    197 H203       72.0012   62.5583   39.9606 R7         2 LUT      0.087068
    198 H202       71.3020   61.4775   41.1704 R7         2 LUT      0.087068
    199 H201       70.6670   62.9639   40.6673 R7         2 LUT      0.087068
    200 H193       68.0172   59.7816   45.2940 R4         2 LUT      0.089716
    201 H192       67.1620   60.8253   44.3698 R4         2 LUT      0.089716
    202 H191       68.7482   60.0880   43.8220 R4         2 LUT      0.089716
    203 H183       64.8198   64.8580   47.4621 R1         2 LUT      0.094572
    204 H182       66.5534   65.1665   47.6077 R1         2 LUT      0.094572
    205 H181       65.7604   64.0616   46.3346 R1         2 LUT      0.094572
    206 H173       69.1697   61.3294   49.3153 T4         2 LUT      0.093752
    207 H172       68.6355   60.4835   50.8232 T4         2 LUT      0.093752
    208 H171       68.1254   59.7741   49.2393 T4         2 LUT      0.093752
    209 H163       66.2818   60.5021   51.5104 T4         2 LUT      0.093752
    210 H162       65.0268   61.3038   50.6234 T4         2 LUT      0.093752
    211 H161       65.7289   59.8482   49.9869 T4         2 LUT      0.093752
    212 HO3        66.2318   65.6514   51.6787 Q1         2 LUT      0.300121
    213 H8         68.2004   63.3830   46.8175 U7         2 LUT      0.080784
    214 H7         67.4099   60.6414   47.3084 U6         2 LUT      0.042190
    215 H42        64.4087   63.2561   49.9843 U5         2 LUT      0.145166
    216 H41        64.7214   64.8396   49.6487 U5         2 LUT      0.145166
    217 H35        75.8385   65.1431   42.0453 T3         2 LUT      0.077919
    218 H34        76.2482   63.9850   39.2034 T2         2 LUT      0.073626
    219 H32        78.2976   64.2570   37.9763 T1         2 LUT      0.092510
    220 H31        80.4410   65.9143   39.4035 U9         2 LUT      0.070048
    221 H30        80.3433   64.2937   36.8096 U8         2 LUT      0.085442
    222 H3         65.6069   63.5138   51.6591 U3         2 LUT     -0.031596
    223 H28        81.9123   64.6887   35.4194 U7         2 LUT      0.084728
    224 H27        84.4738   66.3558   36.0943 U6         2 LUT      0.087291
    225 H26        83.8543   64.2465   34.1613 Q6         2 LUT      0.075325
    226 H24        85.1317   65.9784   31.0311 Q5         2 LUT      0.094482
    227 H23        87.4664   65.3046   32.2438 U3         2 LUT     -0.024869
    228 H22        67.4886   62.4034   51.8064 U2         2 LUT      0.127376
    229 H21        68.2394   63.3109   50.2201 U2         2 LUT      0.127376
    230 H15        74.2182   63.3712   40.0765 T3         2 LUT      0.093200
    231 H14        73.7725   64.5014   42.7712 T2         2 LUT      0.068865
    232 H12        71.6408   64.2662   43.8542 T1         2 LUT      0.095507
    233 H11        70.1825   61.7092   42.8871 U9         2 LUT      0.068930
    234 H10        70.0499   63.5870   45.3845 U8         2 LUT      0.083911
    235 H1         86.8474   64.2366   30.2359 Q1         2 LUT      0.297311
@<TRIPOS>BOND
    1     6     1 1
    2     7     2 1
    3     8     3 1
    4     9     4 1
    5    11     4 1
    6    12     6 1
    7    13     9 1
    8    16     9 1
    9    25     5 1
   10    25    16 1
   11    26    10 1
   12    26    17 1
   13    27    18 1
   14    28    14 1
   15    28    19 1
   16    29    12 1
   17    30    13 1
   18    31    24 1
   19    32     1 1
   20    32    25 1
   21    33    21 1
   22    33    26 1
   23    34    22 1
   24    34    27 1
   25    35    23 1
   26    35    28 1
   27    36    12 1
   28    36    24 1
   29    37    13 1
   30    37    15 1
   31    38    31 1
   32    39    20 1
   33    39    32 1
   34    40     2 1
   35    40    33 1
   36    41     3 1
   37    41    34 1
   38    42     4 1
   39    42    35 1
   40    43    38 1
   41    44     5 1
   42    44    17 1
   43    44    39 1
   44    45    10 1
   45    45    18 1
   46    45    40 1
   47    46    19 1
   48    46    41 1
   49    47    14 1
   50    47    16 1
   51    47    42 1
   52    48    38 1
   53    49    48 1
   54    50    49 1
   55    51    50 1
   56    52    51 1
   57    53    51 1
   58    54    53 1
   59    55    54 1
   60    56    55 1
   61    57    56 1
   62    58    56 1
   63    59    58 1
   64    60    59 1
   65    61    60 1
   66    62    61 1
   67    63    61 1
   68    64    27 1
   69    64    46 1
   70    65     5 1
   71    65    10 1
   72    65    64 1
   73    65    14 1
   74    66    23 1
   75    67    23 1
   76    68    23 1
   77    69    22 1
   78    70    22 1
   79    71    22 1
   80    72    21 1
   81    73    21 1
   82    74    21 1
   83    75    20 1
   84    76    20 1
   85    77    20 1
   86    78    15 1
   87    79    15 1
   88    80    15 1
   89    81     8 1
   90    82     8 1
   91    83     8 1
   92    84     7 1
   93    85     7 1
   94    86     6 1
   95    87     6 1
   96    88     3 1
   97    89     3 1
   98    90     1 1
   99    91     1 1
  100    92    63 1
  101    93    63 1
  102    94    63 1
  103    95    62 1
  104    96    62 1
  105    97    62 1
  106    98    60 1
  107    99    60 1
  108   100    59 1
  109   101    59 1
  110   102    58 1
  111   103    58 1
  112   104    57 1
  113   105    57 1
  114   106    57 1
  115   107    55 1
  116   108    55 1
  117   109    54 1
  118   110    54 1
  119   111    53 1
  120   112    53 1
  121   113    19 1
  122   114    18 1
  123   115    17 1
  124   116     9 1
  125   117     2 1
  126   118    52 1
  127   119    52 1
  128   120    52 1
  129   121    51 1
  130   122    50 1
  131   123    50 1
  132   124    49 1
  133   125    49 1
  134   126    48 1
  135   127    48 1
  136   128    43 1
  137   129    43 1
  138   130    43 1
  139   131    39 1
  140   132    32 1
  141   133    31 1
  142   134    61 1
  143   135    56 1
  144   136    24 1
  145   137    24 1
  146   139   138 1
  147   140   139 1
  148   141   140 1
  149   142   140 1
  150   143   142 1
  151   144   138 1
  152   144   143 1
  153   145   144 1
  154   146   145 1
  155   147   146 1
  156   148   147 1
  157   149   148 1
  158   150   149 1
  159   151   150 1
  160   152   151 1
  161   153   152 1
  162   154   138 1
  163   155   138 1
  164   156   143 1
  165   157   147 1
  166   158   151 1
  167   160   159 1
  168   161   160 1
  169   162   161 1
  170   163   161 1
  171   164   163 1
  172   165   159 1
  173   165   164 1
  174   166   165 1
  175   167   166 1
  176   168   167 1
  177   169   168 1
  178   170   169 1
  179   171   170 1
  180   172   171 1
  181   173   172 1
  182   174   153 1
  183   174   173 1
  184   175   159 1
  185   176   159 1
  186   177   164 1
  187   178   168 1
  188   179   172 1
  189   180   179 1
  190   181   179 1
  191   182   179 1
  192   183   178 1
  193   184   178 1
  194   185   178 1
  195   186   177 1
  196   187   177 1
  197   188   177 1
  198   189   176 1
  199   190   176 1
  200   191   176 1
  201   192   175 1
  202   193   175 1
  203   194   175 1
  204   195   160 1
  205   196   160 1
  206   197   158 1
  207   198   158 1
  208   199   158 1
  209   200   157 1
  210   201   157 1
  211   202   157 1
  212   203   156 1
  213   204   156 1
  214   205   156 1
  215   206   155 1
  216   207   155 1
  217   208   155 1
  218   209   154 1
  219   210   154 1
  220   211   154 1
  221   212   141 1
  222   213   146 1
  223   214   145 1
  224   215   142 1
  225   216   142 1
  226   217   174 1
  227   218   173 1
  228   219   171 1
  229   220   170 1
  230   221   169 1
  231   222   140 1
  232   223   167 1
  233   224   166 1
  234   225   165 1
  235   226   163 1
  236   227   161 1
  237   228   139 1
  238   229   139 1
  239   230   153 1
  240   231   152 1
  241   232   150 1
  242   233   149 1
  243   234   148 1
  244   235   162 1
  245   65    153 1
  246   65    174 1
@<TRIPOS>SUBSTRUCTURE
      1 CLA               1 ****               0 ****  **** 
      2 LUT             138 ****               0 ****  **** 
