@<TRIPOS>MOLECULE
Cpptraj generated mol2 file.
  235   246     2     0     0
SMALL
USER_CHARGES


@<TRIPOS>ATOM
      1 CAA        79.1855   59.0616   33.7480 a2         1 CLA     -0.055900
      2 CAB        78.7064   62.4877   42.7281 c8         1 CLA     -0.148500
      3 CAC        72.1952   57.9103   42.0243 a2         1 CLA     -0.012600
      4 CAD        75.3261   55.8407   34.6889 ck         1 CLA      0.398800
      5 NA         78.1565   59.1237   37.0641 ns         1 CLA     -0.225500
      6 CBA        80.5150   59.1524   32.9114 a2         1 CLA     -0.135000
      7 CBB        79.8885   62.5238   43.4043 c0         1 CLA     -0.395200
      8 CBC        72.3305   56.5047   42.6155 a3         1 CLA     -0.037700
      9 CBD        76.7337   56.6537   34.4763 a1         1 CLA     -0.053900
     10 NB         77.8279   60.5123   39.6864 nm         1 CLA     -0.295700
     11 OBD        74.8397   55.0239   33.9603 o2         1 CLA     -0.494600
     12 CGA        81.0341   57.8688   32.3860 c4         1 CLA      0.827000
     13 CGD        77.7786   55.7303   33.9686 c4         1 CLA      0.655300
     14 ND         75.4220   57.8854   37.6927 nm         1 CLA     -0.291600
     15 CED        78.9984   53.6541   34.4658 a3         1 CLA      0.005400
     16 CHA        76.9927   57.4662   35.7357 cs         1 CLA     -0.123800
     17 CHB        79.7412   60.6706   38.1040 aa         1 CLA     -0.291900
     18 CHC        76.5485   60.5803   41.7119 aa         1 CLA     -0.090400
     19 CHD        73.5937   57.4809   39.2601 aa         1 CLA     -0.052000
     20 CMA        81.6161   58.7729   36.6392 a3         1 CLA     -0.230700
     21 CMB        80.7663   62.6765   40.2379 a3         1 CLA     -0.180800
     22 CMC        74.1972   59.9232   43.6812 a3         1 CLA     -0.134000
     23 CMD        72.4465   55.5517   36.7000 a3         1 CLA     -0.141100
     24 C1         82.0596   55.8746   33.1578 a2         1 CLA      0.023000
     25 C1A        78.0776   58.3480   35.9052 ac         1 CLA     -0.015100
     26 C1B        79.0755   60.9830   39.2920 cr         1 CLA      0.054700
     27 C1C        75.4328   59.7492   41.3815 cn         1 CLA     -0.005600
     28 C1D        74.1608   57.2409   37.9979 ap         1 CLA     -0.047300
     29 O1A        80.8753   57.3664   31.2579 o2         1 CLA     -0.610800
     30 O1D        78.4844   56.0004   33.0236 o2         1 CLA     -0.558200
     31 C2         82.4234   55.2824   34.4425 c8         1 CLA     -0.325100
     32 C2A        79.4173   58.4303   35.1887 a1         1 CLA      0.098600
     33 C2B        79.5284   61.9033   40.3383 cb         1 CLA      0.088500
     34 C2C        74.3819   59.3659   42.2779 cb         1 CLA      0.053700
     35 C2D        73.8193   56.3574   36.8926 cb         1 CLA      0.058900
     36 O2A        81.7330   57.3037   33.3604 o1         1 CLA     -0.437200
     37 O2D        77.9811   54.6394   34.8259 o1         1 CLA     -0.357600
     38 C3         83.4781   54.4599   34.7269 c5         1 CLA      0.031200
     39 C3A        80.2938   59.3356   36.0515 a1         1 CLA      0.166800
     40 C3B        78.6568   61.8516   41.4234 cb         1 CLA      0.035000
     41 C3C        73.4926   58.5232   41.5291 cb         1 CLA     -0.089900
     42 C3D        74.8412   56.3932   35.9760 cb         1 CLA     -0.035900
     43 C4         83.3273   53.0267   35.0064 a3         1 CLA     -0.053300
     44 C4A        79.3488   59.7829   37.1603 ac         1 CLA      0.001800
     45 C4B        77.6167   60.9381   40.9475 cn         1 CLA     -0.020900
     46 C4C        74.1011   58.3044   40.2404 cr         1 CLA     -0.044400
     47 C4D        75.8013   57.3047   36.5488 c6         1 CLA     -0.046000
     48 C5         84.9108   55.0699   34.8438 a2         1 CLA     -0.070400
     49 C6         85.1292   56.3973   35.6849 a2         1 CLA      0.043900
     50 C7         84.6770   56.2303   37.1556 a2         1 CLA     -0.150000
     51 C8         84.7274   57.5360   37.9385 a1         1 CLA      0.064200
     52 C9         86.2000   58.0731   37.9687 a3         1 CLA     -0.259300
     53 C10        84.1956   57.2882   39.3792 a2         1 CLA     -0.071900
     54 C11        84.1522   58.4841   40.3736 a2         1 CLA      0.014500
     55 C12        83.6553   58.1733   41.7506 a2         1 CLA     -0.112100
     56 C13        83.6370   59.2535   42.8880 a1         1 CLA      0.089200
     57 C14        85.0682   59.8674   43.0950 a3         1 CLA     -0.239100
     58 C15        83.2196   58.7048   44.3127 a2         1 CLA     -0.102200
     59 C16        81.8547   57.9737   44.4613 a2         1 CLA      0.023900
     60 C17        80.6619   58.9029   44.0548 a2         1 CLA     -0.105700
     61 C18        79.3156   58.4027   44.6515 a1         1 CLA      0.206800
     62 C19        78.2988   59.5456   44.4338 a3         1 CLA     -0.280100
     63 C20        78.9146   57.1019   43.9313 a3         1 CLA     -0.280100
     64 NC         75.2567   59.1064   40.1894 nx         1 CLA     -0.309200
     65 MG         76.5901   59.2666   38.5936 mg         1 CLA      0.895000
     66 HMD3       71.6823   56.3979   36.5243 dc         1 CLA      0.064300
     67 HMD2       72.4917   54.8802   35.8359 dc         1 CLA      0.064300
     68 HMD1       72.0709   55.0969   37.6650 dc         1 CLA      0.064300
     69 HMC3       73.2242   59.8401   44.0298 dc         1 CLA      0.052100
     70 HMC2       74.8188   59.2562   44.3071 dc         1 CLA      0.052100
     71 HMC1       74.5490   60.8903   43.7986 dc         1 CLA      0.052100
     72 HMB3       81.5859   62.1441   40.7066 dc         1 CLA      0.063600
     73 HMB2       81.0473   62.8178   39.2111 dc         1 CLA      0.063600
     74 HMB1       80.6233   63.6445   40.7728 dc         1 CLA      0.063600
     75 HMA3       82.2814   58.4125   35.8574 dc         1 CLA      0.058300
     76 HMA2       82.0742   59.5115   37.2970 dc         1 CLA      0.058300
     77 HMA1       81.3618   57.9784   37.3919 dc         1 CLA      0.058300
     78 HED3       78.8542   53.2925   33.4569 dc         1 CLA      0.079300
     79 HED2       80.0115   54.0469   34.5275 dc         1 CLA      0.079300
     80 HED1       79.1031   52.7910   35.1449 dc         1 CLA      0.079300
     81 HBC3       71.5517   56.3652   43.4295 dc         1 CLA      0.016300
     82 HBC2       72.0834   55.7348   41.8351 dc         1 CLA      0.016300
     83 HBC1       73.2797   56.2896   43.1937 dc         1 CLA      0.016300
     84 HBB2       79.9207   63.0575   44.3654 da         1 CLA      0.183000
     85 HBB1       80.8601   62.0045   43.0850 da         1 CLA      0.183000
     86 HBA2       80.4600   59.8294   31.9811 dc         1 CLA      0.029400
     87 HBA1       81.2508   59.7096   33.5260 dc         1 CLA      0.029400
     88 HAC2       71.8330   58.5063   42.8635 dc         1 CLA      0.029300
     89 HAC1       71.4649   57.7955   41.2403 dc         1 CLA      0.029300
     90 HAA2       78.5228   58.3405   33.2577 dc         1 CLA      0.028700
     91 HAA1       78.5121   59.9666   33.8345 dc         1 CLA      0.028700
     92 H203       78.7846   57.2607   42.8596 dc         1 CLA      0.065600
     93 H202       79.5937   56.3061   44.1127 dc         1 CLA      0.065600
     94 H201       78.0499   56.7309   44.4691 dc         1 CLA      0.065600
     95 H193       77.3086   59.3491   44.8233 dc         1 CLA      0.065600
     96 H192       78.5564   60.4672   44.8934 dc         1 CLA      0.065600
     97 H191       78.3939   59.6465   43.3277 dc         1 CLA      0.065600
     98 H172       80.7880   59.9235   44.4723 dc         1 CLA      0.027600
     99 H171       80.3760   58.9317   42.9934 dc         1 CLA      0.027600
    100 H162       81.7855   57.0126   43.9237 dc         1 CLA      0.002900
    101 H161       81.6198   57.7750   45.5240 dc         1 CLA      0.002900
    102 H152       83.9968   57.9044   44.4888 dc         1 CLA      0.029100
    103 H151       83.3227   59.5694   44.9195 dc         1 CLA      0.029100
    104 H143       85.0812   60.7382   43.7644 dc         1 CLA      0.063600
    105 H142       85.8421   59.1078   43.4525 dc         1 CLA      0.063600
    106 H141       85.4951   60.3375   42.2350 dc         1 CLA      0.063600
    107 H122       82.5841   57.8115   41.6806 dc         1 CLA      0.032500
    108 H121       84.1902   57.2703   42.0943 dc         1 CLA      0.032500
    109 H112       85.1597   58.8626   40.3951 dc         1 CLA      0.006600
    110 H111       83.4417   59.2369   40.0581 dc         1 CLA      0.006600
    111 H102       83.2140   56.8693   39.3422 dc         1 CLA      0.024100
    112 H101       84.8987   56.5755   39.7430 dc         1 CLA      0.024100
    113 HHD        72.6847   56.9477   39.4797 da         1 CLA      0.174300
    114 HHC        76.4363   60.9637   42.7961 da         1 CLA      0.136800
    115 HHB        80.7326   61.1859   38.0668 da         1 CLA      0.138300
    116 HBD        76.4643   57.2647   33.6590 dc         1 CLA      0.107700
    117 HAB        77.7977   62.9405   43.0867 da         1 CLA      0.155200
    118 H93        86.5565   58.4847   37.0314 dc         1 CLA      0.069500
    119 H92        86.2348   58.8964   38.6790 dc         1 CLA      0.069500
    120 H91        86.9357   57.3655   38.3080 dc         1 CLA      0.069500
    121 H8         84.1017   58.3605   37.4723 dc         1 CLA      0.029300
    122 H72        83.7177   55.7480   37.1900 dc         1 CLA      0.044400
    123 H71        85.3272   55.5253   37.6523 dc         1 CLA      0.044400
    124 H62        86.1318   56.7760   35.7375 dc         1 CLA      0.015600
    125 H61        84.4023   57.0573   35.2083 dc         1 CLA      0.015600
    126 H52        85.5716   54.3271   35.2775 dc         1 CLA      0.033200
    127 H51        85.3667   55.2719   33.8704 dc         1 CLA      0.033200
    128 H43        83.9224   52.5160   34.2604 dc         1 CLA      0.037000
    129 H42        83.7838   52.9732   35.9316 dc         1 CLA      0.037000
    130 H41        82.2911   52.8647   35.0292 dc         1 CLA      0.037000
    131 H3A        80.4634   60.3421   35.6325 dc         1 CLA      0.041100
    132 H2A        79.9237   57.4743   34.9485 dc         1 CLA      0.083100
    133 H2         82.0463   55.8510   35.3133 da         1 CLA      0.180900
    134 H18        79.5301   58.1266   45.7453 dc         1 CLA     -0.003900
    135 H13        82.9103   59.9473   42.5225 dc         1 CLA      0.019700
    136 H12        81.1495   55.2367   32.9281 dc         1 CLA      0.120400
    137 H11        82.9053   55.9215   32.4675 dc         1 CLA      0.120400
    138 C1         68.7664   61.7407   49.6475 Z1         2 LUT      0.509236
    139 C2         67.5263   61.5138   50.6091 Z2         2 LUT     -0.434695
    140 C3         66.5347   62.7085   50.8879 Z3         2 LUT      0.437453
    141 O3         66.4201   62.9154   52.2583 S1         2 LUT     -0.547129
    142 C4         66.7883   63.9415   49.9771 Z4         2 LUT     -0.468603
    143 C5         67.6292   63.6915   48.6731 Z5         2 LUT      0.279246
    144 C6         68.5040   62.6830   48.4601 Z6         2 LUT     -0.305473
    145 C7         68.9542   62.2330   47.2029 Z7         2 LUT      0.069402
    146 C8         70.2241   62.4190   46.7210 Z8         2 LUT     -0.191631
    147 C9         70.7433   62.2347   45.3907 Z9         2 LUT      0.196698
    148 C10        71.7473   63.0213   44.9734 Y1         2 LUT     -0.208611
    149 C11        72.3317   62.9639   43.6522 Y2         2 LUT      0.030784
    150 C12        73.3983   63.7292   43.3646 Y3         2 LUT     -0.220316
    151 C13        74.1092   63.8346   42.1261 Y4         2 LUT      0.215937
    152 C14        75.3905   64.4146   42.1052 Y5         2 LUT     -0.185793
    153 C15        76.4789   64.6704   41.1533 Y6         2 LUT     -0.057835
    154 C16        69.1439   60.2963   49.2613 Y7         2 LUT     -0.405615
    155 C17        69.8949   62.3942   50.5569 Y7         2 LUT     -0.405615
    156 C18        67.2949   64.6925   47.6064 Y9         2 LUT     -0.369639
    157 C19        70.1277   61.1517   44.5728 W1         2 LUT     -0.333362
    158 C20        73.3821   63.2978   40.9178 W2         2 LUT     -0.323439
    159 C21        88.1651   65.6929   34.6600 Z1         2 LUT      0.406104
    160 C22        88.7976   65.2194   33.3243 Z2         2 LUT     -0.404965
    161 C23        88.9717   66.2808   32.2207 Z3         2 LUT      0.391255
    162 O23        89.6543   65.6778   31.1480 S1         2 LUT     -0.528210
    163 C24        87.6334   67.0289   32.0786 W6         2 LUT     -0.258361
    164 C25        86.6683   67.1452   32.9878 Z5         2 LUT      0.133546
    165 C26        86.6951   66.2964   34.2782 W8         2 LUT     -0.147008
    166 C27        85.8941   66.7873   35.4821 Z7         2 LUT      0.023843
    167 C28        84.6786   66.4857   36.0861 Z8         2 LUT     -0.216987
    168 C29        84.1049   66.8557   37.3963 Z9         2 LUT      0.206524
    169 C30        82.9217   66.2783   37.7032 Y1         2 LUT     -0.215556
    170 C31        82.0866   66.5637   38.8211 Y2         2 LUT      0.025142
    171 C32        80.8280   65.9364   39.0921 Y3         2 LUT     -0.212209
    172 C33        79.9019   66.2477   40.1343 Y4         2 LUT      0.240937
    173 C34        78.7904   65.4232   40.3252 Y5         2 LUT     -0.218862
    174 C35        77.6680   65.3078   41.3610 Y6         2 LUT     -0.023547
    175 C36        89.1571   66.5971   35.4368 Y7         2 LUT     -0.393485
    176 C37        87.9659   64.4915   35.5692 Y7         2 LUT     -0.393485
    177 C38        85.4091   67.9841   32.7426 Y9         2 LUT     -0.387526
    178 C39        84.7937   68.0155   38.0948 W1         2 LUT     -0.322618
    179 C40        80.6155   67.1086   41.2438 W2         2 LUT     -0.358472
    180 H403       79.8521   67.3282   42.0066 R7         2 LUT      0.097720
    181 H402       81.5003   66.7402   41.6688 R7         2 LUT      0.097720
    182 H401       80.7844   68.0754   40.8298 R7         2 LUT      0.097720
    183 H393       84.2402   68.2454   39.0148 R4         2 LUT      0.082505
    184 H392       85.8502   67.7058   38.4218 R4         2 LUT      0.082505
    185 H391       84.9218   69.0057   37.5646 R4         2 LUT      0.082505
    186 H383       85.0901   68.0142   31.7117 R1         2 LUT      0.104030
    187 H382       84.5276   67.6687   33.3305 R1         2 LUT      0.104030
    188 H381       85.5054   69.0506   32.9621 R1         2 LUT      0.104030
    189 H373       87.1052   63.9101   35.2425 T4         2 LUT      0.089537
    190 H372       88.7940   63.8126   35.5745 T4         2 LUT      0.089537
    191 H371       87.8556   64.7075   36.5760 T4         2 LUT      0.089537
    192 H363       89.4064   67.5127   34.8878 T4         2 LUT      0.089537
    193 H362       88.7306   66.8450   36.3998 T4         2 LUT      0.089537
    194 H361       90.1215   66.2197   35.6363 T4         2 LUT      0.089537
    195 H222       89.8338   64.9397   33.4782 U2         2 LUT      0.127376
    196 H221       88.3377   64.2906   32.9467 U2         2 LUT      0.127376
    197 H203       72.2904   63.4189   40.9828 R7         2 LUT      0.087068
    198 H202       73.7379   63.7770   40.0293 R7         2 LUT      0.087068
    199 H201       73.7009   62.2637   40.8200 R7         2 LUT      0.087068
    200 H193       69.8403   60.3394   45.2453 R4         2 LUT      0.089716
    201 H192       69.1646   61.5654   44.1083 R4         2 LUT      0.089716
    202 H191       70.7605   60.7711   43.7117 R4         2 LUT      0.089716
    203 H183       68.0991   65.3209   47.1747 R1         2 LUT      0.094572
    204 H182       66.9006   64.1215   46.7935 R1         2 LUT      0.094572
    205 H181       66.5702   65.4373   47.9475 R1         2 LUT      0.094572
    206 H173       70.1498   61.7360   51.3578 T4         2 LUT      0.093752
    207 H172       70.7900   62.6319   50.0357 T4         2 LUT      0.093752
    208 H171       69.3834   63.2724   50.9910 T4         2 LUT      0.093752
    209 H163       68.4260   59.7532   48.6327 T4         2 LUT      0.093752
    210 H162       70.1406   60.3315   48.8252 T4         2 LUT      0.093752
    211 H161       69.1865   59.6051   50.1511 T4         2 LUT      0.093752
    212 HO3        67.0967   63.5311   52.6108 Q1         2 LUT      0.300121
    213 H8         70.8671   63.0021   47.3445 U7         2 LUT      0.080784
    214 H7         68.2072   61.9525   46.4418 U6         2 LUT      0.042190
    215 H42        65.7963   64.1193   49.5491 U5         2 LUT      0.145166
    216 H41        66.9738   64.8825   50.5621 U5         2 LUT      0.145166
    217 H35        77.9061   65.8900   42.2473 T3         2 LUT      0.077919
    218 H34        78.6936   64.6545   39.5392 T2         2 LUT      0.073626
    219 H32        80.4613   65.2020   38.4304 T1         2 LUT      0.092510
    220 H31        82.3268   67.3975   39.4142 U9         2 LUT      0.070048
    221 H30        82.5953   65.4066   37.0896 U8         2 LUT      0.085442
    222 H3         65.6495   62.1787   50.4508 U3         2 LUT     -0.031596
    223 H28        84.0940   65.6991   35.5763 U7         2 LUT      0.084728
    224 H27        86.4269   67.5072   36.1258 U6         2 LUT      0.087291
    225 H26        86.1134   65.4779   33.9797 Q6         2 LUT      0.075325
    226 H24        87.6357   67.6698   31.1834 Q5         2 LUT      0.094482
    227 H23        89.5443   67.0841   32.6276 U3         2 LUT     -0.024869
    228 H22        66.9417   60.6886   50.1304 U2         2 LUT      0.127376
    229 H21        67.8105   60.9403   51.4648 U2         2 LUT      0.127376
    230 H15        76.2254   64.1304   40.2397 T3         2 LUT      0.093200
    231 H14        75.6589   64.8873   43.0129 T2         2 LUT      0.068865
    232 H12        73.7709   64.3330   44.1516 T1         2 LUT      0.095507
    233 H11        72.0222   62.2072   42.9499 U9         2 LUT      0.068930
    234 H10        72.0814   63.8321   45.6182 U8         2 LUT      0.083911
    235 H1         88.9971   65.2793   30.5058 Q1         2 LUT      0.297311
@<TRIPOS>BOND
    1     6     1 1
    2     7     2 1
    3     8     3 1
    4     9     4 1
    5    11     4 1
    6    12     6 1
    7    13     9 1
    8    16     9 1
    9    25     5 1
   10    25    16 1
   11    26    10 1
   12    26    17 1
   13    27    18 1
   14    28    14 1
   15    28    19 1
   16    29    12 1
   17    30    13 1
   18    31    24 1
   19    32     1 1
   20    32    25 1
   21    33    21 1
   22    33    26 1
   23    34    22 1
   24    34    27 1
   25    35    23 1
   26    35    28 1
   27    36    12 1
   28    36    24 1
   29    37    13 1
   30    37    15 1
   31    38    31 1
   32    39    20 1
   33    39    32 1
   34    40     2 1
   35    40    33 1
   36    41     3 1
   37    41    34 1
   38    42     4 1
   39    42    35 1
   40    43    38 1
   41    44     5 1
   42    44    17 1
   43    44    39 1
   44    45    10 1
   45    45    18 1
   46    45    40 1
   47    46    19 1
   48    46    41 1
   49    47    14 1
   50    47    16 1
   51    47    42 1
   52    48    38 1
   53    49    48 1
   54    50    49 1
   55    51    50 1
   56    52    51 1
   57    53    51 1
   58    54    53 1
   59    55    54 1
   60    56    55 1
   61    57    56 1
   62    58    56 1
   63    59    58 1
   64    60    59 1
   65    61    60 1
   66    62    61 1
   67    63    61 1
   68    64    27 1
   69    64    46 1
   70    65     5 1
   71    65    10 1
   72    65    64 1
   73    65    14 1
   74    66    23 1
   75    67    23 1
   76    68    23 1
   77    69    22 1
   78    70    22 1
   79    71    22 1
   80    72    21 1
   81    73    21 1
   82    74    21 1
   83    75    20 1
   84    76    20 1
   85    77    20 1
   86    78    15 1
   87    79    15 1
   88    80    15 1
   89    81     8 1
   90    82     8 1
   91    83     8 1
   92    84     7 1
   93    85     7 1
   94    86     6 1
   95    87     6 1
   96    88     3 1
   97    89     3 1
   98    90     1 1
   99    91     1 1
  100    92    63 1
  101    93    63 1
  102    94    63 1
  103    95    62 1
  104    96    62 1
  105    97    62 1
  106    98    60 1
  107    99    60 1
  108   100    59 1
  109   101    59 1
  110   102    58 1
  111   103    58 1
  112   104    57 1
  113   105    57 1
  114   106    57 1
  115   107    55 1
  116   108    55 1
  117   109    54 1
  118   110    54 1
  119   111    53 1
  120   112    53 1
  121   113    19 1
  122   114    18 1
  123   115    17 1
  124   116     9 1
  125   117     2 1
  126   118    52 1
  127   119    52 1
  128   120    52 1
  129   121    51 1
  130   122    50 1
  131   123    50 1
  132   124    49 1
  133   125    49 1
  134   126    48 1
  135   127    48 1
  136   128    43 1
  137   129    43 1
  138   130    43 1
  139   131    39 1
  140   132    32 1
  141   133    31 1
  142   134    61 1
  143   135    56 1
  144   136    24 1
  145   137    24 1
  146   139   138 1
  147   140   139 1
  148   141   140 1
  149   142   140 1
  150   143   142 1
  151   144   138 1
  152   144   143 1
  153   145   144 1
  154   146   145 1
  155   147   146 1
  156   148   147 1
  157   149   148 1
  158   150   149 1
  159   151   150 1
  160   152   151 1
  161   153   152 1
  162   154   138 1
  163   155   138 1
  164   156   143 1
  165   157   147 1
  166   158   151 1
  167   160   159 1
  168   161   160 1
  169   162   161 1
  170   163   161 1
  171   164   163 1
  172   165   159 1
  173   165   164 1
  174   166   165 1
  175   167   166 1
  176   168   167 1
  177   169   168 1
  178   170   169 1
  179   171   170 1
  180   172   171 1
  181   173   172 1
  182   174   153 1
  183   174   173 1
  184   175   159 1
  185   176   159 1
  186   177   164 1
  187   178   168 1
  188   179   172 1
  189   180   179 1
  190   181   179 1
  191   182   179 1
  192   183   178 1
  193   184   178 1
  194   185   178 1
  195   186   177 1
  196   187   177 1
  197   188   177 1
  198   189   176 1
  199   190   176 1
  200   191   176 1
  201   192   175 1
  202   193   175 1
  203   194   175 1
  204   195   160 1
  205   196   160 1
  206   197   158 1
  207   198   158 1
  208   199   158 1
  209   200   157 1
  210   201   157 1
  211   202   157 1
  212   203   156 1
  213   204   156 1
  214   205   156 1
  215   206   155 1
  216   207   155 1
  217   208   155 1
  218   209   154 1
  219   210   154 1
  220   211   154 1
  221   212   141 1
  222   213   146 1
  223   214   145 1
  224   215   142 1
  225   216   142 1
  226   217   174 1
  227   218   173 1
  228   219   171 1
  229   220   170 1
  230   221   169 1
  231   222   140 1
  232   223   167 1
  233   224   166 1
  234   225   165 1
  235   226   163 1
  236   227   161 1
  237   228   139 1
  238   229   139 1
  239   230   153 1
  240   231   152 1
  241   232   150 1
  242   233   149 1
  243   234   148 1
  244   235   162 1
  245   65    153 1
  246   65    174 1
@<TRIPOS>SUBSTRUCTURE
      1 CLA               1 ****               0 ****  **** 
      2 LUT             138 ****               0 ****  **** 
