@<TRIPOS>MOLECULE
Cpptraj generated mol2 file.
  235   246     2     0     0
SMALL
USER_CHARGES


@<TRIPOS>ATOM
      1 CAA        77.5562   57.5344   35.2465 a2         1 CLA     -0.055900
      2 CAB        77.2267   61.4278   44.0859 c8         1 CLA     -0.148500
      3 CAC        70.5159   57.4513   43.4851 a2         1 CLA     -0.012600
      4 CAD        73.5191   54.7953   36.3588 ck         1 CLA      0.398800
      5 NA         76.5642   57.9386   38.5474 ns         1 CLA     -0.225500
      6 CBA        78.7687   57.4478   34.2903 a2         1 CLA     -0.135000
      7 CBB        78.2942   61.6245   44.9198 c0         1 CLA     -0.395200
      8 CBC        70.3437   55.9289   43.6172 a3         1 CLA     -0.037700
      9 CBD        75.0547   55.1814   36.1613 a1         1 CLA     -0.053900
     10 NB         76.3533   59.4197   41.1392 nm         1 CLA     -0.295700
     11 OBD        72.8960   53.9733   35.7578 o2         1 CLA     -0.494600
     12 CGA        79.3981   56.0900   33.9769 c4         1 CLA      0.827000
     13 CGD        75.9796   53.9581   36.2454 c4         1 CLA      0.655300
     14 ND         73.8122   57.0532   39.1686 nm         1 CLA     -0.291600
     15 CED        76.4014   51.9998   37.6130 a3         1 CLA      0.005400
     16 CHA        75.3267   56.2570   37.3146 cs         1 CLA     -0.123800
     17 CHB        78.2291   59.3922   39.5457 aa         1 CLA     -0.291900
     18 CHC        75.0708   59.6188   43.2151 aa         1 CLA     -0.090400
     19 CHD        71.8843   56.9135   40.7409 aa         1 CLA     -0.052000
     20 CMA        80.0574   57.2812   38.0985 a3         1 CLA     -0.230700
     21 CMB        79.5374   61.4712   41.5788 a3         1 CLA     -0.180800
     22 CMC        72.5802   59.1871   45.1224 a3         1 CLA     -0.134000
     23 CMD        70.5853   55.0357   38.5517 a3         1 CLA     -0.141100
     24 C1         80.9029   54.4579   34.9240 a2         1 CLA      0.023000
     25 C1A        76.4859   56.9907   37.5589 ac         1 CLA     -0.015100
     26 C1B        77.5813   59.8815   40.7167 cr         1 CLA      0.054700
     27 C1C        73.8991   58.8641   42.8936 cn         1 CLA     -0.005600
     28 C1D        72.5051   56.5626   39.5198 ap         1 CLA     -0.047300
     29 O1A        79.2482   55.4145   32.9438 o2         1 CLA     -0.610800
     30 O1D        76.9252   53.7843   35.5715 o2         1 CLA     -0.558200
     31 C2         80.6896   53.5455   36.1310 c8         1 CLA     -0.325100
     32 C2A        77.7823   56.9949   36.6557 a1         1 CLA      0.098600
     33 C2B        78.1854   60.8227   41.7290 cb         1 CLA      0.088500
     34 C2C        72.8186   58.5520   43.7844 cb         1 CLA      0.053700
     35 C2D        71.9689   55.7030   38.4909 cb         1 CLA      0.058900
     36 O2A        80.0929   55.6349   35.0761 o1         1 CLA     -0.437200
     37 O2D        75.5104   53.0520   37.1975 o1         1 CLA     -0.357600
     38 C3         81.6025   53.0350   37.0145 c5         1 CLA      0.031200
     39 C3A        78.7455   57.9673   37.5729 a1         1 CLA      0.166800
     40 C3B        77.2478   60.7712   42.7750 cb         1 CLA      0.035000
     41 C3C        71.8737   57.8583   43.0319 cb         1 CLA     -0.089900
     42 C3D        73.1168   55.5093   37.6007 cb         1 CLA     -0.035900
     43 C4         82.4062   51.7764   36.5132 a3         1 CLA     -0.053300
     44 C4A        77.7999   58.5039   38.5905 ac         1 CLA      0.001800
     45 C4B        76.1537   59.9264   42.3804 cn         1 CLA     -0.020900
     46 C4C        72.4306   57.7096   41.7432 cr         1 CLA     -0.044400
     47 C4D        74.1197   56.3357   38.0572 c6         1 CLA     -0.046000
     48 C5         81.9871   53.7154   38.3191 a2         1 CLA     -0.070400
     49 C6         83.0436   54.7874   38.0349 a2         1 CLA      0.043900
     50 C7         83.3075   55.5475   39.3582 a2         1 CLA     -0.150000
     51 C8         83.9748   56.9422   39.1216 a1         1 CLA      0.064200
     52 C9         85.2899   56.7598   38.4428 a3         1 CLA     -0.259300
     53 C10        84.1097   57.7721   40.3951 a2         1 CLA     -0.071900
     54 C11        82.8689   58.1362   41.1993 a2         1 CLA      0.014500
     55 C12        83.1208   59.0043   42.4042 a2         1 CLA     -0.112100
     56 C13        83.8769   58.3507   43.5714 a1         1 CLA      0.089200
     57 C14        82.8693   57.4298   44.2943 a3         1 CLA     -0.239100
     58 C15        84.4513   59.3853   44.6011 a2         1 CLA     -0.102200
     59 C16        83.5259   60.2585   45.4719 a2         1 CLA      0.023900
     60 C17        84.3102   60.7096   46.7116 a2         1 CLA     -0.105700
     61 C18        83.4380   61.3506   47.8648 a1         1 CLA      0.206800
     62 C19        82.8582   62.6614   47.4190 a3         1 CLA     -0.280100
     63 C20        82.2777   60.4356   48.5414 a3         1 CLA     -0.280100
     64 NC         73.6055   58.3373   41.6632 nx         1 CLA     -0.309200
     65 MG         75.0361   58.2968   40.0303 mg         1 CLA      0.895000
     66 HMD3       69.8844   55.7863   38.2379 dc         1 CLA      0.064300
     67 HMD2       70.5645   54.1940   37.8663 dc         1 CLA      0.064300
     68 HMD1       70.5081   54.7346   39.5739 dc         1 CLA      0.064300
     69 HMC3       72.3050   58.2894   45.7218 dc         1 CLA      0.052100
     70 HMC2       73.4244   59.6372   45.5710 dc         1 CLA      0.052100
     71 HMC1       71.7826   59.8685   45.1156 dc         1 CLA      0.052100
     72 HMB3       79.5242   62.1195   42.4553 dc         1 CLA      0.063600
     73 HMB2       80.2936   60.7179   41.3989 dc         1 CLA      0.063600
     74 HMB1       79.5722   62.0744   40.7467 dc         1 CLA      0.063600
     75 HMA3       80.4821   58.0645   38.7001 dc         1 CLA      0.058300
     76 HMA2       79.7829   56.4076   38.6346 dc         1 CLA      0.058300
     77 HMA1       80.6745   57.0831   37.2698 dc         1 CLA      0.058300
     78 HED3       75.9449   51.4098   38.4150 dc         1 CLA      0.079300
     79 HED2       76.6494   51.3343   36.8568 dc         1 CLA      0.079300
     80 HED1       77.3096   52.3693   38.0926 dc         1 CLA      0.079300
     81 HBC3       71.2866   55.4829   44.0098 dc         1 CLA      0.016300
     82 HBC2       69.5465   55.7905   44.3551 dc         1 CLA      0.016300
     83 HBC1       70.0559   55.3816   42.7651 dc         1 CLA      0.016300
     84 HBB2       78.1999   62.0863   45.8821 da         1 CLA      0.183000
     85 HBB1       79.2170   61.1032   44.7152 da         1 CLA      0.183000
     86 HBA2       78.3261   57.8406   33.3864 dc         1 CLA      0.029400
     87 HBA1       79.5546   58.1552   34.6153 dc         1 CLA      0.029400
     88 HAC2       70.3435   57.9000   44.5277 dc         1 CLA      0.029300
     89 HAC1       69.7623   57.8620   42.9139 dc         1 CLA      0.029300
     90 HAA2       76.7370   56.9615   34.7497 dc         1 CLA      0.028700
     91 HAA1       77.1805   58.5327   35.4127 dc         1 CLA      0.028700
     92 H203       81.6372   59.9282   47.7979 dc         1 CLA      0.065600
     93 H202       82.8209   59.6218   49.0201 dc         1 CLA      0.065600
     94 H201       81.7445   61.0804   49.2394 dc         1 CLA      0.065600
     95 H193       83.5366   63.2003   46.8831 dc         1 CLA      0.065600
     96 H192       82.0314   62.4614   46.7999 dc         1 CLA      0.065600
     97 H191       82.6157   63.2197   48.3304 dc         1 CLA      0.065600
     98 H172       84.8230   59.8140   47.1425 dc         1 CLA      0.027600
     99 H171       85.0250   61.4832   46.4915 dc         1 CLA      0.027600
    100 H162       83.1464   61.0761   44.8758 dc         1 CLA      0.002900
    101 H161       82.7135   59.6748   45.8911 dc         1 CLA      0.002900
    102 H152       85.0666   58.8397   45.2774 dc         1 CLA      0.029100
    103 H151       85.0963   60.0956   44.0614 dc         1 CLA      0.029100
    104 H143       82.7427   56.5417   43.6729 dc         1 CLA      0.063600
    105 H142       83.3279   57.1179   45.1538 dc         1 CLA      0.063600
    106 H141       81.8676   57.9252   44.4472 dc         1 CLA      0.063600
    107 H122       83.6663   59.8851   42.1527 dc         1 CLA      0.032500
    108 H121       82.2041   59.4740   42.7979 dc         1 CLA      0.032500
    109 H112       82.1380   58.5880   40.5316 dc         1 CLA      0.006600
    110 H111       82.4029   57.2006   41.5473 dc         1 CLA      0.006600
    111 H102       84.7564   57.1523   40.9990 dc         1 CLA      0.024100
    112 H101       84.7508   58.6204   40.1887 dc         1 CLA      0.024100
    113 HHD        70.8975   56.4969   40.8755 da         1 CLA      0.174300
    114 HHC        75.2820   59.8769   44.2280 da         1 CLA      0.136800
    115 HHB        79.2636   59.7992   39.4086 da         1 CLA      0.138300
    116 HBD        75.1754   55.6838   35.1427 dc         1 CLA      0.107700
    117 HAB        76.3021   61.7625   44.4501 da         1 CLA      0.155200
    118 H93        85.9810   56.1375   39.0734 dc         1 CLA      0.069500
    119 H92        85.1849   56.2223   37.5919 dc         1 CLA      0.069500
    120 H91        85.7209   57.7227   38.2753 dc         1 CLA      0.069500
    121 H8         83.3814   57.4312   38.3531 dc         1 CLA      0.029300
    122 H72        82.3526   55.7100   39.8504 dc         1 CLA      0.044400
    123 H71        83.8089   54.9641   40.0719 dc         1 CLA      0.044400
    124 H62        83.9321   54.3201   37.8021 dc         1 CLA      0.015600
    125 H61        82.7137   55.4908   37.2741 dc         1 CLA      0.015600
    126 H52        81.1282   54.0906   38.8406 dc         1 CLA      0.033200
    127 H51        82.4088   52.9977   38.9774 dc         1 CLA      0.033200
    128 H43        83.3363   52.1617   36.2094 dc         1 CLA      0.037000
    129 H42        82.3894   50.9771   37.2294 dc         1 CLA      0.037000
    130 H41        81.9857   51.3398   35.6056 dc         1 CLA      0.037000
    131 H3A        79.1701   58.7332   36.9084 dc         1 CLA      0.041100
    132 H2A        78.2035   55.9927   36.7747 dc         1 CLA      0.083100
    133 H2         79.6558   53.1956   36.3031 da         1 CLA      0.180900
    134 H18        84.0591   61.7403   48.6726 dc         1 CLA     -0.003900
    135 H13        84.7001   57.7125   43.2409 dc         1 CLA      0.019700
    136 H12        80.8121   53.9110   33.9988 dc         1 CLA      0.120400
    137 H11        81.9733   54.7412   34.9476 dc         1 CLA      0.120400
    138 C1         67.2507   62.5012   51.4118 Z1         2 LUT      0.509236
    139 C2         67.2370   63.7892   52.1747 Z2         2 LUT     -0.434695
    140 C3         65.9376   64.5325   52.0797 Z3         2 LUT      0.437453
    141 O3         66.1855   65.9128   52.3652 S1         2 LUT     -0.547129
    142 C4         65.3059   64.4339   50.6768 Z4         2 LUT     -0.468603
    143 C5         65.9709   63.6180   49.5820 Z5         2 LUT      0.279246
    144 C6         66.8951   62.6589   49.9428 Z6         2 LUT     -0.305473
    145 C7         67.8120   62.0074   48.9217 Z7         2 LUT      0.069402
    146 C8         68.3553   62.4995   47.7376 Z8         2 LUT     -0.191631
    147 C9         69.0231   61.7672   46.6994 Z9         2 LUT      0.196698
    148 C10        69.7181   62.5445   45.7982 Y1         2 LUT     -0.208611
    149 C11        70.5347   62.2953   44.6553 Y2         2 LUT      0.030784
    150 C12        71.5354   63.0810   44.1624 Y3         2 LUT     -0.220316
    151 C13        72.4606   62.7749   43.0486 Y4         2 LUT      0.215937
    152 C14        73.5736   63.4989   43.0043 Y5         2 LUT     -0.185793
    153 C15        74.6926   63.3524   42.1688 Y6         2 LUT     -0.057835
    154 C16        66.2276   61.5516   52.0649 Y7         2 LUT     -0.405615
    155 C17        68.6451   61.8959   51.6605 Y7         2 LUT     -0.405615
    156 C18        65.6454   64.1077   48.1858 Y9         2 LUT     -0.369639
    157 C19        68.8729   60.2348   46.6235 W1         2 LUT     -0.333362
    158 C20        71.9664   61.7843   41.9395 W2         2 LUT     -0.323439
    159 C21        86.2303   64.5785   35.6803 Z1         2 LUT      0.406104
    160 C22        86.7111   64.2260   34.3132 Z2         2 LUT     -0.404965
    161 C23        86.3718   65.1157   33.0954 Z3         2 LUT      0.391255
    162 O23        86.5839   64.2072   32.0159 S1         2 LUT     -0.528210
    163 C24        85.0093   65.5483   33.1148 W6         2 LUT     -0.258361
    164 C25        84.1688   65.4620   34.0878 Z5         2 LUT      0.133546
    165 C26        84.6097   64.8009   35.4560 W8         2 LUT     -0.147008
    166 C27        83.9738   65.5602   36.6085 Z7         2 LUT      0.023843
    167 C28        82.8164   65.1963   37.1714 Z8         2 LUT     -0.216987
    168 C29        82.2467   65.8402   38.3234 Z9         2 LUT      0.206524
    169 C30        81.1435   65.1400   38.8620 Y1         2 LUT     -0.215556
    170 C31        80.2710   65.3784   39.9757 Y2         2 LUT      0.025142
    171 C32        79.0541   64.7097   40.3021 Y3         2 LUT     -0.212209
    172 C33        78.0450   64.8981   41.4028 Y4         2 LUT      0.240937
    173 C34        76.9031   64.1353   41.4177 Y5         2 LUT     -0.218862
    174 C35        75.8237   64.2086   42.2475 Y6         2 LUT     -0.023547
    175 C36        87.0833   65.7448   36.2013 Y7         2 LUT     -0.393485
    176 C37        86.5713   63.3869   36.6273 Y7         2 LUT     -0.393485
    177 C38        82.7352   65.9499   33.9929 Y9         2 LUT     -0.387526
    178 C39        82.9234   67.0275   38.9941 W1         2 LUT     -0.322618
    179 C40        78.3829   65.9461   42.4600 W2         2 LUT     -0.358472
    180 H403       78.1754   66.9489   42.0584 R7         2 LUT      0.097720
    181 H402       77.7792   65.7923   43.3055 R7         2 LUT      0.097720
    182 H401       79.3511   65.9375   42.8258 R7         2 LUT      0.097720
    183 H393       83.4439   67.6557   38.3060 R4         2 LUT      0.082505
    184 H392       82.2433   67.6483   39.5209 R4         2 LUT      0.082505
    185 H391       83.6624   66.7099   39.7175 R4         2 LUT      0.082505
    186 H383       81.9932   65.3355   34.5456 R1         2 LUT      0.104030
    187 H382       82.7105   66.9592   34.5276 R1         2 LUT      0.104030
    188 H381       82.3134   65.9895   32.9544 R1         2 LUT      0.104030
    189 H373       86.2177   63.6875   37.6273 T4         2 LUT      0.089537
    190 H372       86.0911   62.3951   36.4378 T4         2 LUT      0.089537
    191 H371       87.6829   63.2087   36.7992 T4         2 LUT      0.089537
    192 H363       87.0475   66.6040   35.5341 T4         2 LUT      0.089537
    193 H362       86.7212   66.1677   37.1189 T4         2 LUT      0.089537
    194 H361       88.1098   65.4092   36.4634 T4         2 LUT      0.089537
    195 H222       87.7697   63.9819   34.1813 U2         2 LUT      0.127376
    196 H221       86.3122   63.2260   34.0742 U2         2 LUT      0.127376
    197 H203       72.1416   60.7590   42.1743 R7         2 LUT      0.087068
    198 H202       70.9153   61.9471   41.8248 R7         2 LUT      0.087068
    199 H201       72.6367   62.0342   41.1044 R7         2 LUT      0.087068
    200 H193       68.4306   59.8362   47.5203 R4         2 LUT      0.089716
    201 H192       68.1726   59.8778   45.7897 R4         2 LUT      0.089716
    202 H191       69.8410   59.7302   46.5052 R4         2 LUT      0.089716
    203 H183       64.6206   64.2381   47.9634 R1         2 LUT      0.094572
    204 H182       66.0799   65.0885   47.9027 R1         2 LUT      0.094572
    205 H181       65.9782   63.4497   47.3577 R1         2 LUT      0.094572
    206 H173       68.8710   60.8326   51.3230 T4         2 LUT      0.093752
    207 H172       69.4085   62.5741   51.3359 T4         2 LUT      0.093752
    208 H171       68.7157   61.8004   52.7720 T4         2 LUT      0.093752
    209 H163       66.2266   60.5934   51.5676 T4         2 LUT      0.093752
    210 H162       66.4425   61.4785   53.1622 T4         2 LUT      0.093752
    211 H161       65.2066   61.9120   51.9965 T4         2 LUT      0.093752
    212 HO3        65.5575   66.3280   52.9832 Q1         2 LUT      0.300121
    213 H8         68.2035   63.5094   47.5542 U7         2 LUT      0.080784
    214 H7         68.0046   60.9545   49.1597 U6         2 LUT      0.042190
    215 H42        64.3202   64.1386   50.8950 U5         2 LUT      0.145166
    216 H41        65.0660   65.3876   50.1178 U5         2 LUT      0.145166
    217 H35        75.9039   65.0418   42.9164 T3         2 LUT      0.077919
    218 H34        76.8554   63.4234   40.6368 T2         2 LUT      0.073626
    219 H32        78.7496   63.8880   39.6474 T1         2 LUT      0.092510
    220 H31        80.5287   66.2740   40.5449 U9         2 LUT      0.070048
    221 H30        80.7552   64.2251   38.3937 U8         2 LUT      0.085442
    222 H3         65.2995   63.9763   52.8037 U3         2 LUT     -0.031596
    223 H28        82.3716   64.2892   36.7521 U7         2 LUT      0.084728
    224 H27        84.4917   66.4283   36.9300 U6         2 LUT      0.087291
    225 H26        84.2330   63.8120   35.3007 Q6         2 LUT      0.075325
    226 H24        84.5220   65.8562   32.2507 Q5         2 LUT      0.094482
    227 H23        86.9137   66.0585   33.2358 U3         2 LUT     -0.024869
    228 H22        67.5208   63.6177   53.2267 U2         2 LUT      0.127376
    229 H21        68.0348   64.3935   51.7102 U2         2 LUT      0.127376
    230 H15        74.7748   62.5850   41.5224 T3         2 LUT      0.093200
    231 H14        73.7818   64.2235   43.8572 T2         2 LUT      0.068865
    232 H12        71.7579   63.9385   44.7239 T1         2 LUT      0.095507
    233 H11        70.4562   61.3300   44.2068 U9         2 LUT      0.068930
    234 H10        69.6367   63.6006   45.9389 U8         2 LUT      0.083911
    235 H1         87.2679   64.4438   31.3803 Q1         2 LUT      0.297311
@<TRIPOS>BOND
    1     6     1 1
    2     7     2 1
    3     8     3 1
    4     9     4 1
    5    11     4 1
    6    12     6 1
    7    13     9 1
    8    16     9 1
    9    25     5 1
   10    25    16 1
   11    26    10 1
   12    26    17 1
   13    27    18 1
   14    28    14 1
   15    28    19 1
   16    29    12 1
   17    30    13 1
   18    31    24 1
   19    32     1 1
   20    32    25 1
   21    33    21 1
   22    33    26 1
   23    34    22 1
   24    34    27 1
   25    35    23 1
   26    35    28 1
   27    36    12 1
   28    36    24 1
   29    37    13 1
   30    37    15 1
   31    38    31 1
   32    39    20 1
   33    39    32 1
   34    40     2 1
   35    40    33 1
   36    41     3 1
   37    41    34 1
   38    42     4 1
   39    42    35 1
   40    43    38 1
   41    44     5 1
   42    44    17 1
   43    44    39 1
   44    45    10 1
   45    45    18 1
   46    45    40 1
   47    46    19 1
   48    46    41 1
   49    47    14 1
   50    47    16 1
   51    47    42 1
   52    48    38 1
   53    49    48 1
   54    50    49 1
   55    51    50 1
   56    52    51 1
   57    53    51 1
   58    54    53 1
   59    55    54 1
   60    56    55 1
   61    57    56 1
   62    58    56 1
   63    59    58 1
   64    60    59 1
   65    61    60 1
   66    62    61 1
   67    63    61 1
   68    64    27 1
   69    64    46 1
   70    65     5 1
   71    65    10 1
   72    65    64 1
   73    65    14 1
   74    66    23 1
   75    67    23 1
   76    68    23 1
   77    69    22 1
   78    70    22 1
   79    71    22 1
   80    72    21 1
   81    73    21 1
   82    74    21 1
   83    75    20 1
   84    76    20 1
   85    77    20 1
   86    78    15 1
   87    79    15 1
   88    80    15 1
   89    81     8 1
   90    82     8 1
   91    83     8 1
   92    84     7 1
   93    85     7 1
   94    86     6 1
   95    87     6 1
   96    88     3 1
   97    89     3 1
   98    90     1 1
   99    91     1 1
  100    92    63 1
  101    93    63 1
  102    94    63 1
  103    95    62 1
  104    96    62 1
  105    97    62 1
  106    98    60 1
  107    99    60 1
  108   100    59 1
  109   101    59 1
  110   102    58 1
  111   103    58 1
  112   104    57 1
  113   105    57 1
  114   106    57 1
  115   107    55 1
  116   108    55 1
  117   109    54 1
  118   110    54 1
  119   111    53 1
  120   112    53 1
  121   113    19 1
  122   114    18 1
  123   115    17 1
  124   116     9 1
  125   117     2 1
  126   118    52 1
  127   119    52 1
  128   120    52 1
  129   121    51 1
  130   122    50 1
  131   123    50 1
  132   124    49 1
  133   125    49 1
  134   126    48 1
  135   127    48 1
  136   128    43 1
  137   129    43 1
  138   130    43 1
  139   131    39 1
  140   132    32 1
  141   133    31 1
  142   134    61 1
  143   135    56 1
  144   136    24 1
  145   137    24 1
  146   139   138 1
  147   140   139 1
  148   141   140 1
  149   142   140 1
  150   143   142 1
  151   144   138 1
  152   144   143 1
  153   145   144 1
  154   146   145 1
  155   147   146 1
  156   148   147 1
  157   149   148 1
  158   150   149 1
  159   151   150 1
  160   152   151 1
  161   153   152 1
  162   154   138 1
  163   155   138 1
  164   156   143 1
  165   157   147 1
  166   158   151 1
  167   160   159 1
  168   161   160 1
  169   162   161 1
  170   163   161 1
  171   164   163 1
  172   165   159 1
  173   165   164 1
  174   166   165 1
  175   167   166 1
  176   168   167 1
  177   169   168 1
  178   170   169 1
  179   171   170 1
  180   172   171 1
  181   173   172 1
  182   174   153 1
  183   174   173 1
  184   175   159 1
  185   176   159 1
  186   177   164 1
  187   178   168 1
  188   179   172 1
  189   180   179 1
  190   181   179 1
  191   182   179 1
  192   183   178 1
  193   184   178 1
  194   185   178 1
  195   186   177 1
  196   187   177 1
  197   188   177 1
  198   189   176 1
  199   190   176 1
  200   191   176 1
  201   192   175 1
  202   193   175 1
  203   194   175 1
  204   195   160 1
  205   196   160 1
  206   197   158 1
  207   198   158 1
  208   199   158 1
  209   200   157 1
  210   201   157 1
  211   202   157 1
  212   203   156 1
  213   204   156 1
  214   205   156 1
  215   206   155 1
  216   207   155 1
  217   208   155 1
  218   209   154 1
  219   210   154 1
  220   211   154 1
  221   212   141 1
  222   213   146 1
  223   214   145 1
  224   215   142 1
  225   216   142 1
  226   217   174 1
  227   218   173 1
  228   219   171 1
  229   220   170 1
  230   221   169 1
  231   222   140 1
  232   223   167 1
  233   224   166 1
  234   225   165 1
  235   226   163 1
  236   227   161 1
  237   228   139 1
  238   229   139 1
  239   230   153 1
  240   231   152 1
  241   232   150 1
  242   233   149 1
  243   234   148 1
  244   235   162 1
  245   65    153 1
  246   65    174 1
@<TRIPOS>SUBSTRUCTURE
      1 CLA               1 ****               0 ****  **** 
      2 LUT             138 ****               0 ****  **** 
