@<TRIPOS>MOLECULE
Cpptraj generated mol2 file.
  235   246     2     0     0
SMALL
USER_CHARGES


@<TRIPOS>ATOM
      1 CAA        78.3865   57.7190   34.7329 a2         1 CLA     -0.055900
      2 CAB        77.7051   61.6769   43.6825 c8         1 CLA     -0.148500
      3 CAC        71.1489   57.1283   42.8019 a2         1 CLA     -0.012600
      4 CAD        74.6842   54.5573   36.0339 ck         1 CLA      0.398800
      5 NA         77.3142   58.2220   38.1974 ns         1 CLA     -0.225500
      6 CBA        79.6297   57.6414   33.7991 a2         1 CLA     -0.135000
      7 CBB        78.8114   61.4802   44.4472 c0         1 CLA     -0.395200
      8 CBC        71.1498   55.5426   42.8077 a3         1 CLA     -0.037700
      9 CBD        76.1403   55.1708   35.9553 a1         1 CLA     -0.053900
     10 NB         76.7545   59.8754   40.5252 nm         1 CLA     -0.295700
     11 OBD        74.3247   53.6395   35.3117 o2         1 CLA     -0.494600
     12 CGA        80.3640   56.2821   33.6894 c4         1 CLA      0.827000
     13 CGD        77.2735   54.1587   36.0817 c4         1 CLA      0.655300
     14 ND         74.5016   57.0672   38.5991 nm         1 CLA     -0.291600
     15 CED        78.0348   52.2056   37.2361 a3         1 CLA      0.005400
     16 CHA        76.3052   56.3950   36.9444 cs         1 CLA     -0.123800
     17 CHB        78.7968   60.0272   39.0296 aa         1 CLA     -0.291900
     18 CHC        75.3872   59.9653   42.5804 aa         1 CLA     -0.090400
     19 CHD        72.6108   56.9488   39.9478 aa         1 CLA     -0.052000
     20 CMA        80.8689   58.1872   37.5368 a3         1 CLA     -0.230700
     21 CMB        79.8601   61.8981   41.1126 a3         1 CLA     -0.180800
     22 CMC        73.1414   58.9616   44.6272 a3         1 CLA     -0.134000
     23 CMD        71.7881   54.6507   37.8889 a3         1 CLA     -0.141100
     24 C1         81.4765   54.5918   34.9369 a2         1 CLA      0.023000
     25 C1A        77.3475   57.3145   37.1190 ac         1 CLA     -0.015100
     26 C1B        78.0265   60.3540   40.1665 cr         1 CLA      0.054700
     27 C1C        74.3498   59.0540   42.2538 cn         1 CLA     -0.005600
     28 C1D        73.2852   56.5669   38.8197 ap         1 CLA     -0.047300
     29 O1A        80.1811   55.4785   32.7745 o2         1 CLA     -0.610800
     30 O1D        78.2824   54.1669   35.3755 o2         1 CLA     -0.558200
     31 C2         82.2510   54.5883   36.2833 c8         1 CLA     -0.325100
     32 C2A        78.6818   57.4041   36.2972 a1         1 CLA      0.098600
     33 C2B        78.5826   61.1876   41.2028 cb         1 CLA      0.088500
     34 C2C        73.2228   58.5910   43.1323 cb         1 CLA      0.053700
     35 C2D        72.9858   55.5066   37.9391 cb         1 CLA      0.058900
     36 O2A        80.9698   55.9451   34.8591 o1         1 CLA     -0.437200
     37 O2D        76.9762   53.1625   37.0642 o1         1 CLA     -0.357600
     38 C3         82.9873   53.5675   36.6869 c5         1 CLA      0.031200
     39 C3A        79.4481   58.5526   37.0764 a1         1 CLA      0.166800
     40 C3B        77.6478   61.1509   42.2757 cb         1 CLA      0.035000
     41 C3C        72.4527   57.7786   42.3591 cb         1 CLA     -0.089900
     42 C3D        74.1630   55.3220   37.1595 cb         1 CLA     -0.035900
     43 C4         82.4814   52.3903   37.4736 a3         1 CLA     -0.053300
     44 C4A        78.4700   58.9728   38.1687 ac         1 CLA      0.001800
     45 C4B        76.5070   60.3386   41.7779 cn         1 CLA     -0.020900
     46 C4C        73.0874   57.7736   41.0242 cr         1 CLA     -0.044400
     47 C4D        75.0652   56.3400   37.6261 c6         1 CLA     -0.046000
     48 C5         84.4860   53.6695   36.3984 a2         1 CLA     -0.070400
     49 C6         85.0937   54.9993   36.8112 a2         1 CLA      0.043900
     50 C7         85.0155   55.1288   38.3655 a2         1 CLA     -0.150000
     51 C8         85.8358   56.2497   39.0040 a1         1 CLA      0.064200
     52 C9         87.3526   55.9863   38.9113 a3         1 CLA     -0.259300
     53 C10        85.3475   56.7010   40.4348 a2         1 CLA     -0.071900
     54 C11        83.9444   57.4568   40.4693 a2         1 CLA      0.014500
     55 C12        83.9501   58.3053   41.8096 a2         1 CLA     -0.112100
     56 C13        84.3690   57.6422   43.1122 a1         1 CLA      0.089200
     57 C14        83.5102   56.4159   43.4838 a3         1 CLA     -0.239100
     58 C15        84.3860   58.6531   44.2900 a2         1 CLA     -0.102200
     59 C16        83.0182   59.2910   44.8524 a2         1 CLA      0.023900
     60 C17        83.2545   60.1073   46.0875 a2         1 CLA     -0.105700
     61 C18        81.9568   60.8735   46.5134 a1         1 CLA      0.206800
     62 C19        80.8491   59.9984   47.1040 a3         1 CLA     -0.280100
     63 C20        82.3675   61.8726   47.6386 a3         1 CLA     -0.280100
     64 NC         74.2272   58.5243   41.0225 nx         1 CLA     -0.309200
     65 MG         75.5564   58.5380   39.5202 mg         1 CLA      0.895000
     66 HMD3       71.8043   54.2528   36.8753 dc         1 CLA      0.064300
     67 HMD2       71.9978   53.8452   38.5842 dc         1 CLA      0.064300
     68 HMD1       70.8464   55.0933   38.2131 dc         1 CLA      0.064300
     69 HMC3       72.1544   59.1754   45.0316 dc         1 CLA      0.052100
     70 HMC2       73.5176   58.1363   45.2221 dc         1 CLA      0.052100
     71 HMC1       73.8504   59.7393   44.8876 dc         1 CLA      0.052100
     72 HMB3       80.1824   62.3797   40.1994 dc         1 CLA      0.063600
     73 HMB2       79.7872   62.7676   41.7689 dc         1 CLA      0.063600
     74 HMB1       80.6570   61.2990   41.4073 dc         1 CLA      0.063600
     75 HMA3       80.8467   57.2625   38.1523 dc         1 CLA      0.058300
     76 HMA2       81.6257   57.9131   36.7120 dc         1 CLA      0.058300
     77 HMA1       81.0882   59.0669   38.1259 dc         1 CLA      0.058300
     78 HED3       78.2795   51.7700   36.2870 dc         1 CLA      0.079300
     79 HED2       78.9968   52.6176   37.6283 dc         1 CLA      0.079300
     80 HED1       77.7205   51.3779   37.8243 dc         1 CLA      0.079300
     81 HBC3       72.1148   55.1939   43.1790 dc         1 CLA      0.016300
     82 HBC2       70.4105   55.2115   43.4998 dc         1 CLA      0.016300
     83 HBC1       70.9808   55.1437   41.7739 dc         1 CLA      0.016300
     84 HBB2       79.0083   61.9389   45.4330 da         1 CLA      0.183000
     85 HBB1       79.7286   60.9313   44.1480 da         1 CLA      0.183000
     86 HBA2       79.4239   57.9370   32.8224 dc         1 CLA      0.029400
     87 HBA1       80.2803   58.3223   34.3172 dc         1 CLA      0.029400
     88 HAC2       70.8941   57.4061   43.8271 dc         1 CLA      0.029300
     89 HAC1       70.3551   57.5098   42.1737 dc         1 CLA      0.029300
     90 HAA2       77.5762   57.1064   34.4326 dc         1 CLA      0.028700
     91 HAA1       78.0429   58.7690   34.6575 dc         1 CLA      0.028700
     92 H203       82.9900   61.3496   48.3536 dc         1 CLA      0.065600
     93 H202       82.9678   62.6528   47.2778 dc         1 CLA      0.065600
     94 H201       81.4924   62.3792   48.0669 dc         1 CLA      0.065600
     95 H193       81.0832   59.6906   48.1696 dc         1 CLA      0.065600
     96 H192       80.0341   60.7012   47.1742 dc         1 CLA      0.065600
     97 H191       80.5918   59.1326   46.5241 dc         1 CLA      0.065600
     98 H172       83.5778   59.4912   46.9451 dc         1 CLA      0.027600
     99 H171       84.0929   60.8162   45.7892 dc         1 CLA      0.027600
    100 H162       82.6479   59.9908   44.1082 dc         1 CLA      0.002900
    101 H161       82.4255   58.3958   44.9516 dc         1 CLA      0.002900
    102 H152       84.8857   58.1565   45.2124 dc         1 CLA      0.029100
    103 H151       84.9367   59.5472   43.9659 dc         1 CLA      0.029100
    104 H143       84.1350   55.8883   44.2235 dc         1 CLA      0.063600
    105 H142       82.5234   56.5663   43.9461 dc         1 CLA      0.063600
    106 H141       83.1711   55.8197   42.6336 dc         1 CLA      0.063600
    107 H122       84.5173   59.2707   41.7129 dc         1 CLA      0.032500
    108 H121       82.8976   58.6008   41.8310 dc         1 CLA      0.032500
    109 H112       83.8088   58.0588   39.5999 dc         1 CLA      0.006600
    110 H111       83.1579   56.6544   40.4951 dc         1 CLA      0.006600
    111 H102       85.4537   55.9209   41.2571 dc         1 CLA      0.024100
    112 H101       86.0735   57.5131   40.6418 dc         1 CLA      0.024100
    113 HHD        71.7228   56.3879   40.2209 da         1 CLA      0.174300
    114 HHC        75.3525   60.5431   43.4919 da         1 CLA      0.136800
    115 HHB        79.6767   60.6308   38.9564 da         1 CLA      0.138300
    116 HBD        76.3165   55.4802   34.9570 dc         1 CLA      0.107700
    117 HAB        76.8942   62.3004   43.9952 da         1 CLA      0.155200
    118 H93        87.6196   54.9767   39.2192 dc         1 CLA      0.069500
    119 H92        87.7181   56.1451   37.8911 dc         1 CLA      0.069500
    120 H91        87.9036   56.6163   39.6756 dc         1 CLA      0.069500
    121 H8         85.6054   57.1212   38.3782 dc         1 CLA      0.029300
    122 H72        83.9539   55.0752   38.5553 dc         1 CLA      0.044400
    123 H71        85.4111   54.2450   38.9240 dc         1 CLA      0.044400
    124 H62        86.1049   55.0991   36.4999 dc         1 CLA      0.015600
    125 H61        84.6060   55.8700   36.4098 dc         1 CLA      0.015600
    126 H52        84.9690   52.7413   36.6911 dc         1 CLA      0.033200
    127 H51        84.5407   53.6204   35.2987 dc         1 CLA      0.033200
    128 H43        82.3724   51.4037   37.0243 dc         1 CLA      0.037000
    129 H42        83.1579   52.3321   38.3466 dc         1 CLA      0.037000
    130 H41        81.4492   52.5409   37.8592 dc         1 CLA      0.037000
    131 H3A        79.6009   59.4373   36.5306 dc         1 CLA      0.041100
    132 H2A        79.1389   56.4154   36.3884 dc         1 CLA      0.083100
    133 H2         82.1543   55.3671   36.9678 da         1 CLA      0.180900
    134 H18        81.5547   61.4265   45.6931 dc         1 CLA     -0.003900
    135 H13        85.3854   57.3209   42.9897 dc         1 CLA      0.019700
    136 H12        80.6807   53.8292   35.0062 dc         1 CLA      0.120400
    137 H11        82.2524   54.3514   34.1966 dc         1 CLA      0.120400
    138 C1         68.0663   61.0736   50.0063 Z1         2 LUT      0.509236
    139 C2         66.6936   60.9634   50.6361 Z2         2 LUT     -0.434695
    140 C3         65.9933   62.1528   51.1549 Z3         2 LUT      0.437453
    141 O3         66.3639   62.6336   52.4810 S1         2 LUT     -0.547129
    142 C4         66.1103   63.2263   50.1134 Z4         2 LUT     -0.468603
    143 C5         66.7663   62.8462   48.7652 Z5         2 LUT      0.279246
    144 C6         67.7246   61.9291   48.7287 Z6         2 LUT     -0.305473
    145 C7         68.1189   61.3694   47.4446 Z7         2 LUT      0.069402
    146 C8         69.3983   61.3973   46.9145 Z8         2 LUT     -0.191631
    147 C9         69.8551   61.1037   45.5000 Z9         2 LUT      0.196698
    148 C10        70.8479   61.9157   45.0252 Y1         2 LUT     -0.208611
    149 C11        71.4017   62.1426   43.6613 Y2         2 LUT      0.030784
    150 C12        72.5276   62.9737   43.3779 Y3         2 LUT     -0.220316
    151 C13        73.3043   63.0478   42.1431 Y4         2 LUT      0.215937
    152 C14        74.6276   63.5402   42.2373 Y5         2 LUT     -0.185793
    153 C15        75.5634   63.7581   41.1891 Y6         2 LUT     -0.057835
    154 C16        68.6634   59.6577   49.7575 Y7         2 LUT     -0.405615
    155 C17        68.9751   61.8197   50.9668 Y7         2 LUT     -0.405615
    156 C18        66.0185   63.6090   47.6832 Y9         2 LUT     -0.369639
    157 C19        69.1330   60.0354   44.7044 W1         2 LUT     -0.333362
    158 C20        72.7941   62.4002   40.9188 W2         2 LUT     -0.323439
    159 C21        86.7342   64.9716   35.1684 Z1         2 LUT      0.406104
    160 C22        87.6342   64.5685   33.9185 Z2         2 LUT     -0.404965
    161 C23        87.9936   65.7666   33.0320 Z3         2 LUT      0.391255
    162 O23        88.6064   65.3866   31.7525 S1         2 LUT     -0.528210
    163 C24        86.7626   66.5574   32.6714 W6         2 LUT     -0.258361
    164 C25        85.6670   66.7190   33.4117 Z5         2 LUT      0.133546
    165 C26        85.4418   65.7848   34.6305 W8         2 LUT     -0.147008
    166 C27        84.5867   66.3812   35.7571 Z7         2 LUT      0.023843
    167 C28        83.5694   65.7526   36.3758 Z8         2 LUT     -0.216987
    168 C29        82.7638   66.1780   37.5109 Z9         2 LUT      0.206524
    169 C30        81.7942   65.4100   38.0559 Y1         2 LUT     -0.215556
    170 C31        80.8661   65.9124   39.0035 Y2         2 LUT      0.025142
    171 C32        79.8669   65.2137   39.4337 Y3         2 LUT     -0.212209
    172 C33        78.9101   65.4832   40.4674 Y4         2 LUT      0.240937
    173 C34        77.7729   64.7267   40.4032 Y5         2 LUT     -0.218862
    174 C35        76.7074   64.5775   41.3700 Y6         2 LUT     -0.023547
    175 C36        87.6849   65.7791   36.0747 Y7         2 LUT     -0.393485
    176 C37        86.5103   63.6809   35.8361 Y7         2 LUT     -0.393485
    177 C38        84.4888   67.5019   32.8029 Y9         2 LUT     -0.387526
    178 C39        83.0178   67.6532   37.8282 W1         2 LUT     -0.322618
    179 C40        79.0709   66.7740   41.2967 W2         2 LUT     -0.358472
    180 H403       78.8261   66.6535   42.3031 R7         2 LUT      0.097720
    181 H402       80.1035   67.0852   41.4042 R7         2 LUT      0.097720
    182 H401       78.5764   67.6778   40.8755 R7         2 LUT      0.097720
    183 H393       82.3159   68.0485   38.5303 R4         2 LUT      0.082505
    184 H392       83.9715   67.8228   38.3192 R4         2 LUT      0.082505
    185 H391       83.0458   68.2735   36.9165 R4         2 LUT      0.082505
    186 H383       84.1633   68.3094   33.4012 R1         2 LUT      0.104030
    187 H382       84.7221   67.9021   31.8286 R1         2 LUT      0.104030
    188 H381       83.7058   66.8039   32.6029 R1         2 LUT      0.104030
    189 H373       85.9403   63.8782   36.7252 T4         2 LUT      0.089537
    190 H372       85.9501   63.0829   35.1413 T4         2 LUT      0.089537
    191 H371       87.4297   63.0818   36.0451 T4         2 LUT      0.089537
    192 H363       88.6104   65.3109   36.3697 T4         2 LUT      0.089537
    193 H362       87.9108   66.6847   35.5763 T4         2 LUT      0.089537
    194 H361       87.2174   66.0753   36.9507 T4         2 LUT      0.089537
    195 H222       88.5224   64.0572   34.1611 U2         2 LUT      0.127376
    196 H221       87.0159   63.9274   33.3515 U2         2 LUT      0.127376
    197 H203       73.3150   62.7886   39.9714 R7         2 LUT      0.087068
    198 H202       72.8152   61.2833   41.0499 R7         2 LUT      0.087068
    199 H201       71.7493   62.6265   40.7481 R7         2 LUT      0.087068
    200 H193       68.7045   59.2845   45.3451 R4         2 LUT      0.089716
    201 H192       68.3542   60.5480   44.1420 R4         2 LUT      0.089716
    202 H191       69.8546   59.5918   43.9531 R4         2 LUT      0.089716
    203 H183       66.3575   63.2609   46.7223 R1         2 LUT      0.094572
    204 H182       64.9337   63.5076   47.7432 R1         2 LUT      0.094572
    205 H181       66.1726   64.6670   47.6766 R1         2 LUT      0.094572
    206 H173       69.9889   61.5289   50.7721 T4         2 LUT      0.093752
    207 H172       68.9018   62.9072   51.0317 T4         2 LUT      0.093752
    208 H171       68.7067   61.5509   52.0325 T4         2 LUT      0.093752
    209 H163       68.9255   59.0754   50.6671 T4         2 LUT      0.093752
    210 H162       67.9805   59.0999   49.0831 T4         2 LUT      0.093752
    211 H161       69.5785   59.6958   49.1653 T4         2 LUT      0.093752
    212 HO3        66.2316   61.9158   53.0711 Q1         2 LUT      0.300121
    213 H8         70.1920   61.9252   47.4848 U7         2 LUT      0.080784
    214 H7         67.3010   61.1070   46.8387 U6         2 LUT      0.042190
    215 H42        65.1156   63.6886   49.9681 U5         2 LUT      0.145166
    216 H41        66.7431   63.9603   50.5362 U5         2 LUT      0.145166
    217 H35        76.8785   65.0270   42.3740 T3         2 LUT      0.077919
    218 H34        77.7761   63.9890   39.5842 T2         2 LUT      0.073626
    219 H32        79.7086   64.3213   38.7626 T1         2 LUT      0.092510
    220 H31        81.0467   66.8098   39.5675 U9         2 LUT      0.070048
    221 H30        81.6549   64.5003   37.5580 U8         2 LUT      0.085442
    222 H3         64.9317   61.8439   51.2330 U3         2 LUT     -0.031596
    223 H28        83.3384   64.6848   36.1167 U7         2 LUT      0.084728
    224 H27        85.0371   67.3458   36.0652 U6         2 LUT      0.087291
    225 H26        84.7514   65.0812   34.1970 Q6         2 LUT      0.075325
    226 H24        86.8210   67.1072   31.7050 Q5         2 LUT      0.094482
    227 H23        88.6245   66.4163   33.5996 U3         2 LUT     -0.024869
    228 H22        66.0009   60.3483   50.0899 U2         2 LUT      0.127376
    229 H21        66.8976   60.3185   51.4284 U2         2 LUT      0.127376
    230 H15        75.4166   63.3743   40.2402 T3         2 LUT      0.093200
    231 H14        74.8108   64.0382   43.1920 T2         2 LUT      0.068865
    232 H12        73.0548   63.4677   44.2234 T1         2 LUT      0.095507
    233 H11        70.9715   61.5377   42.8952 U9         2 LUT      0.068930
    234 H10        71.1843   62.6543   45.7477 U8         2 LUT      0.083911
    235 H1         88.1798   64.5897   31.3473 Q1         2 LUT      0.297311
@<TRIPOS>BOND
    1     6     1 1
    2     7     2 1
    3     8     3 1
    4     9     4 1
    5    11     4 1
    6    12     6 1
    7    13     9 1
    8    16     9 1
    9    25     5 1
   10    25    16 1
   11    26    10 1
   12    26    17 1
   13    27    18 1
   14    28    14 1
   15    28    19 1
   16    29    12 1
   17    30    13 1
   18    31    24 1
   19    32     1 1
   20    32    25 1
   21    33    21 1
   22    33    26 1
   23    34    22 1
   24    34    27 1
   25    35    23 1
   26    35    28 1
   27    36    12 1
   28    36    24 1
   29    37    13 1
   30    37    15 1
   31    38    31 1
   32    39    20 1
   33    39    32 1
   34    40     2 1
   35    40    33 1
   36    41     3 1
   37    41    34 1
   38    42     4 1
   39    42    35 1
   40    43    38 1
   41    44     5 1
   42    44    17 1
   43    44    39 1
   44    45    10 1
   45    45    18 1
   46    45    40 1
   47    46    19 1
   48    46    41 1
   49    47    14 1
   50    47    16 1
   51    47    42 1
   52    48    38 1
   53    49    48 1
   54    50    49 1
   55    51    50 1
   56    52    51 1
   57    53    51 1
   58    54    53 1
   59    55    54 1
   60    56    55 1
   61    57    56 1
   62    58    56 1
   63    59    58 1
   64    60    59 1
   65    61    60 1
   66    62    61 1
   67    63    61 1
   68    64    27 1
   69    64    46 1
   70    65     5 1
   71    65    10 1
   72    65    64 1
   73    65    14 1
   74    66    23 1
   75    67    23 1
   76    68    23 1
   77    69    22 1
   78    70    22 1
   79    71    22 1
   80    72    21 1
   81    73    21 1
   82    74    21 1
   83    75    20 1
   84    76    20 1
   85    77    20 1
   86    78    15 1
   87    79    15 1
   88    80    15 1
   89    81     8 1
   90    82     8 1
   91    83     8 1
   92    84     7 1
   93    85     7 1
   94    86     6 1
   95    87     6 1
   96    88     3 1
   97    89     3 1
   98    90     1 1
   99    91     1 1
  100    92    63 1
  101    93    63 1
  102    94    63 1
  103    95    62 1
  104    96    62 1
  105    97    62 1
  106    98    60 1
  107    99    60 1
  108   100    59 1
  109   101    59 1
  110   102    58 1
  111   103    58 1
  112   104    57 1
  113   105    57 1
  114   106    57 1
  115   107    55 1
  116   108    55 1
  117   109    54 1
  118   110    54 1
  119   111    53 1
  120   112    53 1
  121   113    19 1
  122   114    18 1
  123   115    17 1
  124   116     9 1
  125   117     2 1
  126   118    52 1
  127   119    52 1
  128   120    52 1
  129   121    51 1
  130   122    50 1
  131   123    50 1
  132   124    49 1
  133   125    49 1
  134   126    48 1
  135   127    48 1
  136   128    43 1
  137   129    43 1
  138   130    43 1
  139   131    39 1
  140   132    32 1
  141   133    31 1
  142   134    61 1
  143   135    56 1
  144   136    24 1
  145   137    24 1
  146   139   138 1
  147   140   139 1
  148   141   140 1
  149   142   140 1
  150   143   142 1
  151   144   138 1
  152   144   143 1
  153   145   144 1
  154   146   145 1
  155   147   146 1
  156   148   147 1
  157   149   148 1
  158   150   149 1
  159   151   150 1
  160   152   151 1
  161   153   152 1
  162   154   138 1
  163   155   138 1
  164   156   143 1
  165   157   147 1
  166   158   151 1
  167   160   159 1
  168   161   160 1
  169   162   161 1
  170   163   161 1
  171   164   163 1
  172   165   159 1
  173   165   164 1
  174   166   165 1
  175   167   166 1
  176   168   167 1
  177   169   168 1
  178   170   169 1
  179   171   170 1
  180   172   171 1
  181   173   172 1
  182   174   153 1
  183   174   173 1
  184   175   159 1
  185   176   159 1
  186   177   164 1
  187   178   168 1
  188   179   172 1
  189   180   179 1
  190   181   179 1
  191   182   179 1
  192   183   178 1
  193   184   178 1
  194   185   178 1
  195   186   177 1
  196   187   177 1
  197   188   177 1
  198   189   176 1
  199   190   176 1
  200   191   176 1
  201   192   175 1
  202   193   175 1
  203   194   175 1
  204   195   160 1
  205   196   160 1
  206   197   158 1
  207   198   158 1
  208   199   158 1
  209   200   157 1
  210   201   157 1
  211   202   157 1
  212   203   156 1
  213   204   156 1
  214   205   156 1
  215   206   155 1
  216   207   155 1
  217   208   155 1
  218   209   154 1
  219   210   154 1
  220   211   154 1
  221   212   141 1
  222   213   146 1
  223   214   145 1
  224   215   142 1
  225   216   142 1
  226   217   174 1
  227   218   173 1
  228   219   171 1
  229   220   170 1
  230   221   169 1
  231   222   140 1
  232   223   167 1
  233   224   166 1
  234   225   165 1
  235   226   163 1
  236   227   161 1
  237   228   139 1
  238   229   139 1
  239   230   153 1
  240   231   152 1
  241   232   150 1
  242   233   149 1
  243   234   148 1
  244   235   162 1
  245   65    153 1
  246   65    174 1
@<TRIPOS>SUBSTRUCTURE
      1 CLA               1 ****               0 ****  **** 
      2 LUT             138 ****               0 ****  **** 
