@<TRIPOS>MOLECULE
Cpptraj generated mol2 file.
  235   246     2     0     0
SMALL
USER_CHARGES


@<TRIPOS>ATOM
      1 CAA        79.7689   58.8045   33.3347 a2         1 CLA     -0.055900
      2 CAB        79.2260   62.6016   42.2832 c8         1 CLA     -0.148500
      3 CAC        72.5032   58.1989   41.4480 a2         1 CLA     -0.012600
      4 CAD        75.9206   55.7645   34.3808 ck         1 CLA      0.398800
      5 NA         78.7200   59.0422   36.6327 ns         1 CLA     -0.225500
      6 CBA        80.9164   58.6591   32.2914 a2         1 CLA     -0.135000
      7 CBB        80.4143   62.8913   42.9535 c0         1 CLA     -0.395200
      8 CBC        72.7197   56.7494   41.7168 a3         1 CLA     -0.037700
      9 CBD        77.3636   56.3097   34.1251 a1         1 CLA     -0.053900
     10 NB         78.4212   60.6556   39.1790 nm         1 CLA     -0.295700
     11 OBD        75.3245   54.9371   33.7589 o2         1 CLA     -0.494600
     12 CGA        81.5915   57.2850   32.0303 c4         1 CLA      0.827000
     13 CGD        78.4905   55.3124   33.9940 c4         1 CLA      0.655300
     14 ND         75.9994   58.0693   37.0661 nm         1 CLA     -0.291600
     15 CED        79.2155   53.0396   34.2346 a3         1 CLA      0.005400
     16 CHA        77.6359   57.3610   35.2989 cs         1 CLA     -0.123800
     17 CHB        80.3695   60.4793   37.7433 aa         1 CLA     -0.291900
     18 CHC        76.8609   60.8419   41.1465 aa         1 CLA     -0.090400
     19 CHD        74.1096   57.9303   38.5855 aa         1 CLA     -0.052000
     20 CMA        82.2367   58.5147   36.1481 a3         1 CLA     -0.230700
     21 CMB        81.5972   62.5039   39.9295 a3         1 CLA     -0.180800
     22 CMC        74.6394   60.2096   43.1245 a3         1 CLA     -0.134000
     23 CMD        72.9205   55.9569   36.3333 a3         1 CLA     -0.141100
     24 C1         82.9156   55.4863   32.8290 a2         1 CLA      0.023000
     25 C1A        78.7174   58.1875   35.5851 ac         1 CLA     -0.015100
     26 C1B        79.6975   61.0103   38.8878 cr         1 CLA      0.054700
     27 C1C        75.7855   60.0686   40.8342 cn         1 CLA     -0.005600
     28 C1D        74.7300   57.6014   37.3697 ap         1 CLA     -0.047300
     29 O1A        81.5793   56.7442   30.9220 o2         1 CLA     -0.610800
     30 O1D        79.5116   55.5822   33.3379 o2         1 CLA     -0.558200
     31 C2         83.4709   55.0505   34.1400 c8         1 CLA     -0.325100
     32 C2A        80.0592   58.2408   34.7913 a1         1 CLA      0.098600
     33 C2B        80.2337   61.8483   39.9672 cb         1 CLA      0.088500
     34 C2C        74.6404   59.7349   41.7107 cb         1 CLA      0.053700
     35 C2D        74.3012   56.6737   36.3373 cb         1 CLA      0.058900
     36 O2A        82.3263   56.8335   33.0601 o1         1 CLA     -0.437200
     37 O2D        78.2194   54.0824   34.5724 o1         1 CLA     -0.357600
     38 C3         84.6328   54.3302   34.3675 c5         1 CLA      0.031200
     39 C3A        80.9527   59.1457   35.6184 a1         1 CLA      0.166800
     40 C3B        79.1918   61.9299   40.9391 cb         1 CLA      0.035000
     41 C3C        73.7639   58.8666   40.9615 cb         1 CLA     -0.089900
     42 C3D        75.4201   56.5074   35.5918 cb         1 CLA     -0.035900
     43 C4         84.5026   52.8446   34.7016 a3         1 CLA     -0.053300
     44 C4A        79.9910   59.5590   36.8097 ac         1 CLA      0.001800
     45 C4B        78.0802   61.1287   40.4442 cn         1 CLA     -0.020900
     46 C4C        74.4898   58.7304   39.6784 cr         1 CLA     -0.044400
     47 C4D        76.4307   57.3577   36.0403 c6         1 CLA     -0.046000
     48 C5         85.9912   55.0220   34.4589 a2         1 CLA     -0.070400
     49 C6         86.0389   56.2290   35.4544 a2         1 CLA      0.043900
     50 C7         86.4089   55.9592   36.9203 a2         1 CLA     -0.150000
     51 C8         86.7863   57.1616   37.8085 a1         1 CLA      0.064200
     52 C9         88.1972   57.7068   37.5002 a3         1 CLA     -0.259300
     53 C10        86.6320   56.8383   39.3278 a2         1 CLA     -0.071900
     54 C11        86.9652   57.9415   40.2822 a2         1 CLA      0.014500
     55 C12        86.8655   57.4508   41.7182 a2         1 CLA     -0.112100
     56 C13        87.3134   58.4248   42.9257 a1         1 CLA      0.089200
     57 C14        88.7215   58.8401   42.7817 a3         1 CLA     -0.239100
     58 C15        86.9143   57.7441   44.3349 a2         1 CLA     -0.102200
     59 C16        85.4529   57.1362   44.5226 a2         1 CLA      0.023900
     60 C17        84.4710   58.3081   44.3218 a2         1 CLA     -0.105700
     61 C18        82.9952   57.9698   44.4738 a1         1 CLA      0.206800
     62 C19        82.6919   57.3116   45.8529 a3         1 CLA     -0.280100
     63 C20        82.2477   59.3263   44.2151 a3         1 CLA     -0.280100
     64 NC         75.6486   59.4025   39.7008 nx         1 CLA     -0.309200
     65 MG         77.1528   59.3687   38.0448 mg         1 CLA      0.895000
     66 HMD3       72.1298   56.6652   36.3844 dc         1 CLA      0.064300
     67 HMD2       72.7412   55.3776   35.4348 dc         1 CLA      0.064300
     68 HMD1       72.7550   55.2206   37.1924 dc         1 CLA      0.064300
     69 HMC3       73.7661   59.8182   43.6649 dc         1 CLA      0.052100
     70 HMC2       75.5408   59.8221   43.4978 dc         1 CLA      0.052100
     71 HMC1       74.4437   61.2799   43.0366 dc         1 CLA      0.052100
     72 HMB3       81.8445   62.6017   38.8865 dc         1 CLA      0.063600
     73 HMB2       81.5086   63.4963   40.2817 dc         1 CLA      0.063600
     74 HMB1       82.2880   61.9343   40.5576 dc         1 CLA      0.063600
     75 HMA3       82.1242   57.7878   36.9578 dc         1 CLA      0.058300
     76 HMA2       82.6715   57.9448   35.2879 dc         1 CLA      0.058300
     77 HMA1       82.8799   59.2763   36.5136 dc         1 CLA      0.058300
     78 HED3       80.2557   53.1288   34.6121 dc         1 CLA      0.079300
     79 HED2       78.8532   52.1543   34.7340 dc         1 CLA      0.079300
     80 HED1       79.2936   52.8427   33.1099 dc         1 CLA      0.079300
     81 HBC3       72.8963   56.2567   40.7191 dc         1 CLA      0.016300
     82 HBC2       73.6392   56.4923   42.3001 dc         1 CLA      0.016300
     83 HBC1       71.8344   56.2492   42.3337 dc         1 CLA      0.016300
     84 HBB2       80.3772   63.3126   43.9609 da         1 CLA      0.183000
     85 HBB1       81.3510   62.5503   42.4691 da         1 CLA      0.183000
     86 HBA2       80.4850   59.0127   31.3560 dc         1 CLA      0.029400
     87 HBA1       81.7081   59.4303   32.4378 dc         1 CLA      0.029400
     88 HAC2       72.1783   58.6873   42.3720 dc         1 CLA      0.029300
     89 HAC1       71.6996   58.2804   40.6388 dc         1 CLA      0.029300
     90 HAA2       78.9263   58.3947   32.7892 dc         1 CLA      0.028700
     91 HAA1       79.3657   59.8219   33.4164 dc         1 CLA      0.028700
     92 H203       82.5824   59.9522   43.4020 dc         1 CLA      0.065600
     93 H202       81.1973   59.0727   44.0476 dc         1 CLA      0.065600
     94 H201       82.4247   59.9777   45.0655 dc         1 CLA      0.065600
     95 H193       82.9091   57.9829   46.6987 dc         1 CLA      0.065600
     96 H192       81.6362   57.1118   45.8683 dc         1 CLA      0.065600
     97 H191       83.2526   56.4315   45.9569 dc         1 CLA      0.065600
     98 H172       84.7064   59.0051   45.1955 dc         1 CLA      0.027600
     99 H171       84.6550   58.6782   43.3198 dc         1 CLA      0.027600
    100 H162       85.2988   56.4102   43.7451 dc         1 CLA      0.002900
    101 H161       85.3245   56.6870   45.4167 dc         1 CLA      0.002900
    102 H152       87.6224   56.8979   44.4859 dc         1 CLA      0.029100
    103 H151       87.0267   58.5129   45.1371 dc         1 CLA      0.029100
    104 H143       89.3064   57.8716   42.6074 dc         1 CLA      0.063600
    105 H142       88.9120   59.5363   41.9659 dc         1 CLA      0.063600
    106 H141       89.0576   59.3356   43.6945 dc         1 CLA      0.063600
    107 H122       85.8274   57.2390   41.8381 dc         1 CLA      0.032500
    108 H121       87.3064   56.3923   41.7635 dc         1 CLA      0.032500
    109 H112       87.9935   58.2545   40.0864 dc         1 CLA      0.006600
    110 H111       86.2683   58.8015   40.1013 dc         1 CLA      0.006600
    111 H102       85.5987   56.5010   39.6034 dc         1 CLA      0.024100
    112 H101       87.2814   56.0234   39.4291 dc         1 CLA      0.024100
    113 HHD        73.1348   57.4623   38.7216 da         1 CLA      0.174300
    114 HHC        76.8658   61.1725   42.2153 da         1 CLA      0.136800
    115 HHB        81.3377   60.9328   37.5530 da         1 CLA      0.138300
    116 HBD        77.3877   56.6885   33.1158 dc         1 CLA      0.107700
    117 HAB        78.2479   62.8490   42.7291 da         1 CLA      0.155200
    118 H93        88.2987   58.6548   37.9903 dc         1 CLA      0.069500
    119 H92        88.9807   56.9256   37.8228 dc         1 CLA      0.069500
    120 H91        88.3075   57.7495   36.4291 dc         1 CLA      0.069500
    121 H8         86.0862   57.9649   37.5649 dc         1 CLA      0.029300
    122 H72        85.6381   55.3015   37.4174 dc         1 CLA      0.044400
    123 H71        87.2740   55.3495   36.8981 dc         1 CLA      0.044400
    124 H62        86.8589   56.9545   35.0671 dc         1 CLA      0.015600
    125 H61        85.1390   56.7630   35.5038 dc         1 CLA      0.015600
    126 H52        86.7638   54.2863   34.8011 dc         1 CLA      0.033200
    127 H51        86.2544   55.3997   33.5508 dc         1 CLA      0.033200
    128 H43        83.4475   52.6129   34.5861 dc         1 CLA      0.037000
    129 H42        85.0493   52.2415   33.9859 dc         1 CLA      0.037000
    130 H41        84.8852   52.6775   35.7150 dc         1 CLA      0.037000
    131 H3A        81.2767   59.9937   35.1588 dc         1 CLA      0.041100
    132 H2A        80.4325   57.2139   34.7248 dc         1 CLA      0.083100
    133 H2         82.9444   55.4196   34.9966 da         1 CLA      0.180900
    134 H18        82.7064   57.2464   43.6285 dc         1 CLA     -0.003900
    135 H13        86.7788   59.3164   42.9945 dc         1 CLA      0.019700
    136 H12        82.1745   54.7271   32.6861 dc         1 CLA      0.120400
    137 H11        83.4813   55.4895   31.9333 dc         1 CLA      0.120400
    138 C1         68.7391   62.1001   48.9051 Z1         2 LUT      0.509236
    139 C2         67.3398   61.8474   49.4940 Z2         2 LUT     -0.434695
    140 C3         66.4426   62.9996   49.7118 Z3         2 LUT      0.437453
    141 O3         66.4760   63.4913   51.0928 S1         2 LUT     -0.547129
    142 C4         66.6933   64.1537   48.8032 Z4         2 LUT     -0.468603
    143 C5         67.7371   64.0262   47.6648 Z5         2 LUT      0.279246
    144 C6         68.6365   63.0137   47.6595 Z6         2 LUT     -0.305473
    145 C7         69.1402   62.4915   46.3337 Z7         2 LUT      0.069402
    146 C8         70.0759   63.0164   45.5073 Z8         2 LUT     -0.191631
    147 C9         70.6097   62.4820   44.2925 Z9         2 LUT      0.196698
    148 C10        71.5610   63.3201   43.7102 Y1         2 LUT     -0.208611
    149 C11        72.3126   63.2210   42.4666 Y2         2 LUT      0.030784
    150 C12        73.5100   63.8705   42.1609 Y3         2 LUT     -0.220316
    151 C13        74.4116   63.7633   41.0864 Y4         2 LUT      0.215937
    152 C14        75.6548   64.4254   41.1898 Y5         2 LUT     -0.185793
    153 C15        76.7806   64.3771   40.2722 Y6         2 LUT     -0.057835
    154 C16        69.4925   60.8168   48.6460 Y7         2 LUT     -0.405615
    155 C17        69.6204   62.7119   49.9747 Y7         2 LUT     -0.405615
    156 C18        67.3654   64.8434   46.4600 Y9         2 LUT     -0.369639
    157 C19        70.0146   61.2094   43.6554 W1         2 LUT     -0.333362
    158 C20        74.0488   62.8105   40.0189 W2         2 LUT     -0.323439
    159 C21        88.4813   65.9080   34.0613 Z1         2 LUT      0.406104
    160 C22        89.2049   65.4439   32.7381 Z2         2 LUT     -0.404965
    161 C23        89.1333   66.3842   31.5490 Z3         2 LUT      0.391255
    162 O23        89.8824   66.0184   30.3853 S1         2 LUT     -0.528210
    163 C24        87.7395   66.9798   31.4631 W6         2 LUT     -0.258361
    164 C25        86.7350   66.9858   32.3843 Z5         2 LUT      0.133546
    165 C26        86.9745   66.2689   33.7509 W8         2 LUT     -0.147008
    166 C27        86.2121   66.8280   34.9566 Z7         2 LUT      0.023843
    167 C28        85.0944   66.3489   35.5147 Z8         2 LUT     -0.216987
    168 C29        84.4264   66.7746   36.7738 Z9         2 LUT      0.206524
    169 C30        83.0973   66.2968   36.9051 Y1         2 LUT     -0.215556
    170 C31        82.2967   66.2801   38.1009 Y2         2 LUT      0.025142
    171 C32        81.0744   65.6720   38.2634 Y3         2 LUT     -0.212209
    172 C33        80.1480   65.7556   39.4582 Y4         2 LUT      0.240937
    173 C34        78.9915   65.0571   39.4385 Y5         2 LUT     -0.218862
    174 C35        77.9746   64.9823   40.4288 Y6         2 LUT     -0.023547
    175 C36        89.2872   67.1807   34.5249 Y7         2 LUT     -0.393485
    176 C37        88.5499   64.8113   35.1429 Y7         2 LUT     -0.393485
    177 C38        85.4140   67.6001   32.0387 Y9         2 LUT     -0.387526
    178 C39        85.0316   67.7009   37.7262 W1         2 LUT     -0.322618
    179 C40        80.5224   66.7978   40.4919 W2         2 LUT     -0.358472
    180 H403       79.8067   66.7854   41.3619 R7         2 LUT      0.097720
    181 H402       81.5846   66.7588   40.7824 R7         2 LUT      0.097720
    182 H401       80.3346   67.7304   40.0471 R7         2 LUT      0.097720
    183 H393       84.3990   68.1798   38.5246 R4         2 LUT      0.082505
    184 H392       85.8370   67.1550   38.2537 R4         2 LUT      0.082505
    185 H391       85.4952   68.6428   37.2938 R4         2 LUT      0.082505
    186 H383       84.7336   66.8760   31.5320 R1         2 LUT      0.104030
    187 H382       84.8294   67.7434   32.9999 R1         2 LUT      0.104030
    188 H381       85.4080   68.6376   31.5257 R1         2 LUT      0.104030
    189 H373       89.5689   64.5330   35.4781 T4         2 LUT      0.089537
    190 H372       88.0412   65.2677   36.0504 T4         2 LUT      0.089537
    191 H371       88.1210   63.8222   34.7933 T4         2 LUT      0.089537
    192 H363       88.9570   68.0818   34.0078 T4         2 LUT      0.089537
    193 H362       89.0483   67.4621   35.5322 T4         2 LUT      0.089537
    194 H361       90.3627   67.0508   34.4596 T4         2 LUT      0.089537
    195 H222       90.2569   65.3395   32.9834 U2         2 LUT      0.127376
    196 H221       88.7679   64.5291   32.2458 U2         2 LUT      0.127376
    197 H203       73.3290   61.9779   40.2480 R7         2 LUT      0.087068
    198 H202       73.6483   63.4867   39.2443 R7         2 LUT      0.087068
    199 H201       74.9484   62.3214   39.5028 R7         2 LUT      0.087068
    200 H193       70.0617   60.2442   44.2388 R4         2 LUT      0.089716
    201 H192       68.9077   61.4599   43.6322 R4         2 LUT      0.089716
    202 H191       70.3702   61.0098   42.6927 R4         2 LUT      0.089716
    203 H183       67.9975   64.5754   45.6512 R1         2 LUT      0.094572
    204 H182       66.3685   64.5191   46.1565 R1         2 LUT      0.094572
    205 H181       67.3042   65.9680   46.5285 R1         2 LUT      0.094572
    206 H173       69.6497   62.0808   50.9127 T4         2 LUT      0.093752
    207 H172       70.6771   62.8042   49.6658 T4         2 LUT      0.093752
    208 H171       69.1967   63.6459   50.2289 T4         2 LUT      0.093752
    209 H163       68.9914   60.2376   47.9227 T4         2 LUT      0.093752
    210 H162       70.4155   61.1335   48.1125 T4         2 LUT      0.093752
    211 H161       69.8759   60.2483   49.4575 T4         2 LUT      0.093752
    212 HO3        66.0543   62.8749   51.6705 Q1         2 LUT      0.300121
    213 H8         70.4378   63.9153   45.9429 U7         2 LUT      0.080784
    214 H7         68.8275   61.4773   46.1545 U6         2 LUT      0.042190
    215 H42        65.6975   64.3439   48.2310 U5         2 LUT      0.145166
    216 H41        66.9204   65.0808   49.4205 U5         2 LUT      0.145166
    217 H35        78.1755   65.5276   41.3592 T3         2 LUT      0.077919
    218 H34        78.8215   64.4218   38.5943 T2         2 LUT      0.073626
    219 H32        80.6558   65.0203   37.4980 T1         2 LUT      0.092510
    220 H31        82.7538   66.9769   38.8393 U9         2 LUT      0.070048
    221 H30        82.7968   65.6401   36.0947 U8         2 LUT      0.085442
    222 H3         65.4024   62.6831   49.5412 U3         2 LUT     -0.031596
    223 H28        84.5266   65.7188   34.9044 U7         2 LUT      0.084728
    224 H27        86.8124   67.5970   35.5168 U6         2 LUT      0.087291
    225 H26        86.5957   65.2647   33.6309 Q6         2 LUT      0.075325
    226 H24        87.4337   67.3916   30.5234 Q5         2 LUT      0.094482
    227 H23        89.8441   67.2143   31.8747 U3         2 LUT     -0.024869
    228 H22        66.8972   61.2214   48.7475 U2         2 LUT      0.127376
    229 H21        67.5220   61.2731   50.3740 U2         2 LUT      0.127376
    230 H15        76.5264   63.9414   39.3120 T3         2 LUT      0.093200
    231 H14        75.8109   65.0095   42.1066 T2         2 LUT      0.068865
    232 H12        73.8280   64.5291   43.0121 T1         2 LUT      0.095507
    233 H11        71.9381   62.4064   41.8154 U9         2 LUT      0.068930
    234 H10        71.9362   64.1275   44.3660 U8         2 LUT      0.083911
    235 H1         89.3348   65.7028   29.6548 Q1         2 LUT      0.297311
@<TRIPOS>BOND
    1     6     1 1
    2     7     2 1
    3     8     3 1
    4     9     4 1
    5    11     4 1
    6    12     6 1
    7    13     9 1
    8    16     9 1
    9    25     5 1
   10    25    16 1
   11    26    10 1
   12    26    17 1
   13    27    18 1
   14    28    14 1
   15    28    19 1
   16    29    12 1
   17    30    13 1
   18    31    24 1
   19    32     1 1
   20    32    25 1
   21    33    21 1
   22    33    26 1
   23    34    22 1
   24    34    27 1
   25    35    23 1
   26    35    28 1
   27    36    12 1
   28    36    24 1
   29    37    13 1
   30    37    15 1
   31    38    31 1
   32    39    20 1
   33    39    32 1
   34    40     2 1
   35    40    33 1
   36    41     3 1
   37    41    34 1
   38    42     4 1
   39    42    35 1
   40    43    38 1
   41    44     5 1
   42    44    17 1
   43    44    39 1
   44    45    10 1
   45    45    18 1
   46    45    40 1
   47    46    19 1
   48    46    41 1
   49    47    14 1
   50    47    16 1
   51    47    42 1
   52    48    38 1
   53    49    48 1
   54    50    49 1
   55    51    50 1
   56    52    51 1
   57    53    51 1
   58    54    53 1
   59    55    54 1
   60    56    55 1
   61    57    56 1
   62    58    56 1
   63    59    58 1
   64    60    59 1
   65    61    60 1
   66    62    61 1
   67    63    61 1
   68    64    27 1
   69    64    46 1
   70    65     5 1
   71    65    10 1
   72    65    64 1
   73    65    14 1
   74    66    23 1
   75    67    23 1
   76    68    23 1
   77    69    22 1
   78    70    22 1
   79    71    22 1
   80    72    21 1
   81    73    21 1
   82    74    21 1
   83    75    20 1
   84    76    20 1
   85    77    20 1
   86    78    15 1
   87    79    15 1
   88    80    15 1
   89    81     8 1
   90    82     8 1
   91    83     8 1
   92    84     7 1
   93    85     7 1
   94    86     6 1
   95    87     6 1
   96    88     3 1
   97    89     3 1
   98    90     1 1
   99    91     1 1
  100    92    63 1
  101    93    63 1
  102    94    63 1
  103    95    62 1
  104    96    62 1
  105    97    62 1
  106    98    60 1
  107    99    60 1
  108   100    59 1
  109   101    59 1
  110   102    58 1
  111   103    58 1
  112   104    57 1
  113   105    57 1
  114   106    57 1
  115   107    55 1
  116   108    55 1
  117   109    54 1
  118   110    54 1
  119   111    53 1
  120   112    53 1
  121   113    19 1
  122   114    18 1
  123   115    17 1
  124   116     9 1
  125   117     2 1
  126   118    52 1
  127   119    52 1
  128   120    52 1
  129   121    51 1
  130   122    50 1
  131   123    50 1
  132   124    49 1
  133   125    49 1
  134   126    48 1
  135   127    48 1
  136   128    43 1
  137   129    43 1
  138   130    43 1
  139   131    39 1
  140   132    32 1
  141   133    31 1
  142   134    61 1
  143   135    56 1
  144   136    24 1
  145   137    24 1
  146   139   138 1
  147   140   139 1
  148   141   140 1
  149   142   140 1
  150   143   142 1
  151   144   138 1
  152   144   143 1
  153   145   144 1
  154   146   145 1
  155   147   146 1
  156   148   147 1
  157   149   148 1
  158   150   149 1
  159   151   150 1
  160   152   151 1
  161   153   152 1
  162   154   138 1
  163   155   138 1
  164   156   143 1
  165   157   147 1
  166   158   151 1
  167   160   159 1
  168   161   160 1
  169   162   161 1
  170   163   161 1
  171   164   163 1
  172   165   159 1
  173   165   164 1
  174   166   165 1
  175   167   166 1
  176   168   167 1
  177   169   168 1
  178   170   169 1
  179   171   170 1
  180   172   171 1
  181   173   172 1
  182   174   153 1
  183   174   173 1
  184   175   159 1
  185   176   159 1
  186   177   164 1
  187   178   168 1
  188   179   172 1
  189   180   179 1
  190   181   179 1
  191   182   179 1
  192   183   178 1
  193   184   178 1
  194   185   178 1
  195   186   177 1
  196   187   177 1
  197   188   177 1
  198   189   176 1
  199   190   176 1
  200   191   176 1
  201   192   175 1
  202   193   175 1
  203   194   175 1
  204   195   160 1
  205   196   160 1
  206   197   158 1
  207   198   158 1
  208   199   158 1
  209   200   157 1
  210   201   157 1
  211   202   157 1
  212   203   156 1
  213   204   156 1
  214   205   156 1
  215   206   155 1
  216   207   155 1
  217   208   155 1
  218   209   154 1
  219   210   154 1
  220   211   154 1
  221   212   141 1
  222   213   146 1
  223   214   145 1
  224   215   142 1
  225   216   142 1
  226   217   174 1
  227   218   173 1
  228   219   171 1
  229   220   170 1
  230   221   169 1
  231   222   140 1
  232   223   167 1
  233   224   166 1
  234   225   165 1
  235   226   163 1
  236   227   161 1
  237   228   139 1
  238   229   139 1
  239   230   153 1
  240   231   152 1
  241   232   150 1
  242   233   149 1
  243   234   148 1
  244   235   162 1
  245   65    153 1
  246   65    174 1
@<TRIPOS>SUBSTRUCTURE
      1 CLA               1 ****               0 ****  **** 
      2 LUT             138 ****               0 ****  **** 
