@<TRIPOS>MOLECULE
Cpptraj generated mol2 file.
  235   246     2     0     0
SMALL
USER_CHARGES


@<TRIPOS>ATOM
      1 CAA        79.8693   58.1318   34.5686 a2         1 CLA     -0.055900
      2 CAB        79.5133   62.2995   43.5391 c8         1 CLA     -0.148500
      3 CAC        73.0745   57.8537   43.0374 a2         1 CLA     -0.012600
      4 CAD        75.7797   55.4663   35.8397 ck         1 CLA      0.398800
      5 NA         78.7178   58.8542   37.8423 ns         1 CLA     -0.225500
      6 CBA        81.1837   57.9081   33.7802 a2         1 CLA     -0.135000
      7 CBB        80.7530   62.5104   44.1254 c0         1 CLA     -0.395200
      8 CBC        73.2823   56.3228   43.1698 a3         1 CLA     -0.037700
      9 CBD        77.2377   55.9659   35.6181 a1         1 CLA     -0.053900
     10 NB         78.5586   60.3223   40.4444 nm         1 CLA     -0.295700
     11 OBD        75.2238   54.6008   35.1996 o2         1 CLA     -0.494600
     12 CGA        81.6155   56.4956   33.4157 c4         1 CLA      0.827000
     13 CGD        78.1511   54.7540   35.7669 c4         1 CLA      0.655300
     14 ND         75.9736   57.9186   38.4814 nm         1 CLA     -0.291600
     15 CED        78.5418   52.7368   36.9409 a3         1 CLA      0.005400
     16 CHA        77.5073   57.1064   36.6293 cs         1 CLA     -0.123800
     17 CHB        80.4524   60.2473   38.9535 aa         1 CLA     -0.291900
     18 CHC        77.3755   60.4127   42.5861 aa         1 CLA     -0.090400
     19 CHD        74.0791   57.8180   40.0152 aa         1 CLA     -0.052000
     20 CMA        82.0822   57.9652   37.4789 a3         1 CLA     -0.230700
     21 CMB        81.6203   62.2856   40.8732 a3         1 CLA     -0.180800
     22 CMC        75.0455   59.8231   44.6472 a3         1 CLA     -0.134000
     23 CMD        72.8751   56.0050   37.8631 a3         1 CLA     -0.141100
     24 C1         82.6269   54.6896   34.5370 a2         1 CLA      0.023000
     25 C1A        78.6465   57.9150   36.8216 ac         1 CLA     -0.015100
     26 C1B        79.8238   60.7073   40.1392 cr         1 CLA      0.054700
     27 C1C        76.2003   59.6956   42.2687 cn         1 CLA     -0.005600
     28 C1D        74.7073   57.4937   38.8223 ap         1 CLA     -0.047300
     29 O1A        81.3458   55.8271   32.4384 o2         1 CLA     -0.610800
     30 O1D        79.2225   54.7256   35.2830 o2         1 CLA     -0.558200
     31 C2         83.6585   54.4295   35.5917 c8         1 CLA     -0.325100
     32 C2A        79.9730   57.8123   36.0781 a1         1 CLA      0.098600
     33 C2B        80.3287   61.5757   41.1136 cb         1 CLA      0.088500
     34 C2C        75.1536   59.3841   43.1441 cb         1 CLA      0.053700
     35 C2D        74.2086   56.5010   37.8685 cb         1 CLA      0.058900
     36 O2A        82.3330   56.0936   34.5266 o1         1 CLA     -0.437200
     37 O2D        77.6345   53.8501   36.7379 o1         1 CLA     -0.357600
     38 C3         84.9277   54.0126   35.5077 c5         1 CLA      0.031200
     39 C3A        80.9788   58.7808   36.8427 a1         1 CLA      0.166800
     40 C3B        79.4692   61.5788   42.2087 cb         1 CLA      0.035000
     41 C3C        74.2474   58.5907   42.4175 cb         1 CLA     -0.089900
     42 C3D        75.3223   56.2543   36.9927 cb         1 CLA     -0.035900
     43 C4         85.2506   52.5558   35.3590 a3         1 CLA     -0.053300
     44 C4A        79.9718   59.3518   37.8838 ac         1 CLA      0.001800
     45 C4B        78.4298   60.6988   41.8067 cn         1 CLA     -0.020900
     46 C4C        74.6733   58.5164   41.0687 cr         1 CLA     -0.044400
     47 C4D        76.3861   57.1623   37.4339 c6         1 CLA     -0.046000
     48 C5         85.8956   55.1645   35.2720 a2         1 CLA     -0.070400
     49 C6         86.1206   56.0441   36.5269 a2         1 CLA      0.043900
     50 C7         86.7096   55.3287   37.7016 a2         1 CLA     -0.150000
     51 C8         87.4200   56.2413   38.7224 a1         1 CLA      0.064200
     52 C9         88.8367   56.5375   38.2281 a3         1 CLA     -0.259300
     53 C10        87.3625   55.7814   40.1853 a2         1 CLA     -0.071900
     54 C11        87.6101   56.9176   41.2259 a2         1 CLA      0.014500
     55 C12        87.6147   56.3045   42.6815 a2         1 CLA     -0.112100
     56 C13        87.5025   57.4678   43.7755 a1         1 CLA      0.089200
     57 C14        88.7236   58.4242   43.8630 a3         1 CLA     -0.239100
     58 C15        87.3582   56.7950   45.1589 a2         1 CLA     -0.102200
     59 C16        86.6657   57.7005   46.3222 a2         1 CLA      0.023900
     60 C17        86.7544   57.1021   47.7224 a2         1 CLA     -0.105700
     61 C18        86.2193   58.1223   48.8326 a1         1 CLA      0.206800
     62 C19        84.7282   58.0916   48.9532 a3         1 CLA     -0.280100
     63 C20        86.8542   57.8799   50.2449 a3         1 CLA     -0.280100
     64 NC         75.8822   59.2020   40.9637 nx         1 CLA     -0.309200
     65 MG         77.1473   59.2300   39.3755 mg         1 CLA      0.895000
     66 HMD3       72.6396   55.4223   37.0165 dc         1 CLA      0.064300
     67 HMD2       72.7902   55.4699   38.8160 dc         1 CLA      0.064300
     68 HMD1       72.1798   56.8438   37.8786 dc         1 CLA      0.064300
     69 HMC3       74.0641   59.8034   45.0407 dc         1 CLA      0.052100
     70 HMC2       75.7005   59.2639   45.2939 dc         1 CLA      0.052100
     71 HMC1       75.3228   60.8308   44.7130 dc         1 CLA      0.052100
     72 HMB3       82.4481   61.6407   41.1492 dc         1 CLA      0.063600
     73 HMB2       81.6482   62.4481   39.7999 dc         1 CLA      0.063600
     74 HMB1       81.6555   63.2110   41.4545 dc         1 CLA      0.063600
     75 HMA3       82.7654   57.7148   36.6608 dc         1 CLA      0.058300
     76 HMA2       82.6347   58.5926   38.1921 dc         1 CLA      0.058300
     77 HMA1       81.7250   57.0586   38.0336 dc         1 CLA      0.058300
     78 HED3       78.7017   52.0111   36.1426 dc         1 CLA      0.079300
     79 HED2       79.4726   53.1431   37.4887 dc         1 CLA      0.079300
     80 HED1       78.0364   52.1389   37.6996 dc         1 CLA      0.079300
     81 HBC3       72.5404   55.8966   43.7978 dc         1 CLA      0.016300
     82 HBC2       73.2408   55.9662   42.1823 dc         1 CLA      0.016300
     83 HBC1       74.2857   56.1295   43.6540 dc         1 CLA      0.016300
     84 HBB2       80.8208   62.9887   45.1026 da         1 CLA      0.183000
     85 HBB1       81.6915   62.0839   43.6022 da         1 CLA      0.183000
     86 HBA2       81.0889   58.5279   32.8397 dc         1 CLA      0.029400
     87 HBA1       81.9627   58.5044   34.1637 dc         1 CLA      0.029400
     88 HAC2       72.8102   58.1986   44.0405 dc         1 CLA      0.029300
     89 HAC1       72.2076   58.0978   42.4150 dc         1 CLA      0.029300
     90 HAA2       79.1026   57.5206   34.1222 dc         1 CLA      0.028700
     91 HAA1       79.6255   59.1894   34.5691 dc         1 CLA      0.028700
     92 H203       86.3762   58.5191   51.0338 dc         1 CLA      0.065600
     93 H202       86.7828   56.8168   50.5520 dc         1 CLA      0.065600
     94 H201       87.9278   58.1563   50.1834 dc         1 CLA      0.065600
     95 H193       84.2373   58.5887   48.1545 dc         1 CLA      0.065600
     96 H192       84.4539   57.0946   48.9857 dc         1 CLA      0.065600
     97 H191       84.3175   58.5933   49.8567 dc         1 CLA      0.065600
     98 H172       86.3115   56.1036   47.7961 dc         1 CLA      0.027600
     99 H171       87.8390   56.9756   47.9280 dc         1 CLA      0.027600
    100 H162       87.0882   58.6946   46.2951 dc         1 CLA      0.002900
    101 H161       85.5962   57.7373   46.1574 dc         1 CLA      0.002900
    102 H152       86.8218   55.8806   45.0819 dc         1 CLA      0.029100
    103 H151       88.3442   56.7059   45.6220 dc         1 CLA      0.029100
    104 H143       88.7133   59.0652   43.0235 dc         1 CLA      0.063600
    105 H142       88.8204   58.9204   44.8888 dc         1 CLA      0.063600
    106 H141       89.6499   57.7744   43.6895 dc         1 CLA      0.063600
    107 H122       86.7724   55.5752   42.7347 dc         1 CLA      0.032500
    108 H121       88.4473   55.6437   42.8526 dc         1 CLA      0.032500
    109 H112       88.5394   57.4921   41.2635 dc         1 CLA      0.006600
    110 H111       86.6948   57.5615   41.1830 dc         1 CLA      0.006600
    111 H102       86.2997   55.5441   40.3533 dc         1 CLA      0.024100
    112 H101       88.0032   54.9537   40.4360 dc         1 CLA      0.024100
    113 HHD        73.1501   57.2277   40.0296 da         1 CLA      0.174300
    114 HHC        77.3148   60.8099   43.5889 da         1 CLA      0.136800
    115 HHB        81.5759   60.4651   38.8179 da         1 CLA      0.138300
    116 HBD        77.2748   56.4066   34.5771 dc         1 CLA      0.107700
    117 HAB        78.6236   62.6317   44.1237 da         1 CLA      0.155200
    118 H93        88.7437   56.7238   37.1245 dc         1 CLA      0.069500
    119 H92        89.2442   57.4553   38.6863 dc         1 CLA      0.069500
    120 H91        89.4585   55.6465   38.4797 dc         1 CLA      0.069500
    121 H8         86.9350   57.2203   38.7000 dc         1 CLA      0.029300
    122 H72        85.9281   54.6752   38.1023 dc         1 CLA      0.044400
    123 H71        87.4770   54.5799   37.3864 dc         1 CLA      0.044400
    124 H62        86.7875   56.8739   36.3375 dc         1 CLA      0.015600
    125 H61        85.2045   56.4847   36.8999 dc         1 CLA      0.015600
    126 H52        86.8076   54.7724   34.7999 dc         1 CLA      0.033200
    127 H51        85.4031   55.7357   34.5267 dc         1 CLA      0.033200
    128 H43        85.9519   52.4160   34.4766 dc         1 CLA      0.037000
    129 H42        85.7080   52.2679   36.3133 dc         1 CLA      0.037000
    130 H41        84.3627   51.9235   35.2595 dc         1 CLA      0.037000
    131 H3A        81.3307   59.6653   36.3434 dc         1 CLA      0.041100
    132 H2A        80.4046   56.8269   36.2164 dc         1 CLA      0.083100
    133 H2         83.3138   54.4960   36.6042 da         1 CLA      0.180900
    134 H18        86.4574   59.1650   48.5767 dc         1 CLA     -0.003900
    135 H13        86.6063   57.9816   43.5952 dc         1 CLA      0.019700
    136 H12        81.6819   54.0577   34.7137 dc         1 CLA      0.120400
    137 H11        83.1134   54.4498   33.6546 dc         1 CLA      0.120400
    138 C1         69.3897   61.4308   49.9323 Z1         2 LUT      0.509236
    139 C2         68.0286   61.1840   50.6765 Z2         2 LUT     -0.434695
    140 C3         67.1113   62.4584   50.8874 Z3         2 LUT      0.437453
    141 O3         67.1435   62.8887   52.2783 S1         2 LUT     -0.547129
    142 C4         67.5453   63.6088   50.0255 Z4         2 LUT     -0.468603
    143 C5         68.3078   63.4082   48.7793 Z5         2 LUT      0.279246
    144 C6         69.1976   62.3808   48.7301 Z6         2 LUT     -0.305473
    145 C7         69.6317   61.8393   47.4363 Z7         2 LUT      0.069402
    146 C8         70.4612   62.4729   46.6119 Z8         2 LUT     -0.191631
    147 C9         71.0998   62.0123   45.3218 Z9         2 LUT      0.196698
    148 C10        72.1728   62.7601   44.9777 Y1         2 LUT     -0.208611
    149 C11        72.9932   62.6292   43.8065 Y2         2 LUT      0.030784
    150 C12        74.0779   63.4176   43.5452 Y3         2 LUT     -0.220316
    151 C13        75.0149   63.4215   42.3833 Y4         2 LUT      0.215937
    152 C14        76.1605   64.1900   42.3984 Y5         2 LUT     -0.185793
    153 C15        77.2093   64.2807   41.3696 Y6         2 LUT     -0.057835
    154 C16        70.1346   60.0121   49.8451 Y7         2 LUT     -0.405615
    155 C17        70.2941   62.1847   50.9281 Y7         2 LUT     -0.405615
    156 C18        67.7066   64.1189   47.5918 Y9         2 LUT     -0.369639
    157 C19        70.6579   60.7637   44.6036 W1         2 LUT     -0.333362
    158 C20        74.6593   62.4417   41.2800 W2         2 LUT     -0.323439
    159 C21        88.6339   65.4852   35.0339 Z1         2 LUT      0.406104
    160 C22        89.4043   64.9806   33.7977 Z2         2 LUT     -0.404965
    161 C23        89.3182   65.9955   32.6515 Z3         2 LUT      0.391255
    162 O23        89.9085   65.2918   31.5335 S1         2 LUT     -0.528210
    163 C24        87.9222   66.4777   32.3724 W6         2 LUT     -0.258361
    164 C25        86.9180   66.3651   33.2516 Z5         2 LUT      0.133546
    165 C26        87.1484   65.7188   34.6770 W8         2 LUT     -0.147008
    166 C27        86.2935   66.4445   35.6532 Z7         2 LUT      0.023843
    167 C28        85.1952   65.9823   36.2644 Z8         2 LUT     -0.216987
    168 C29        84.6475   66.5206   37.4921 Z9         2 LUT      0.206524
    169 C30        83.4408   65.8988   37.9632 Y1         2 LUT     -0.215556
    170 C31        82.6623   66.2074   39.1746 Y2         2 LUT      0.025142
    171 C32        81.5678   65.5792   39.4852 Y3         2 LUT     -0.212209
    172 C33        80.6514   65.7195   40.5264 Y4         2 LUT      0.240937
    173 C34        79.4261   65.0515   40.5372 Y5         2 LUT     -0.218862
    174 C35        78.3866   65.0097   41.5012 Y6         2 LUT     -0.023547
    175 C36        89.3004   66.7518   35.6678 Y7         2 LUT     -0.393485
    176 C37        88.9156   64.3659   36.0851 Y7         2 LUT     -0.393485
    177 C38        85.6808   67.1824   33.0285 Y9         2 LUT     -0.387526
    178 C39        85.3568   67.6787   38.1711 W1         2 LUT     -0.322618
    179 C40        81.0154   66.7618   41.5157 W2         2 LUT     -0.358472
    180 H403       82.0588   66.7124   41.7958 R7         2 LUT      0.097720
    181 H402       80.8617   67.7990   41.1170 R7         2 LUT      0.097720
    182 H401       80.4415   66.5412   42.4581 R7         2 LUT      0.097720
    183 H393       86.3981   67.4592   38.3592 R4         2 LUT      0.082505
    184 H392       85.2950   68.5932   37.5690 R4         2 LUT      0.082505
    185 H391       84.9095   67.9995   39.0981 R4         2 LUT      0.082505
    186 H383       85.4550   67.3747   31.9243 R1         2 LUT      0.104030
    187 H382       84.8925   66.4913   33.3755 R1         2 LUT      0.104030
    188 H381       85.5796   68.0933   33.6059 R1         2 LUT      0.104030
    189 H373       89.9874   64.1712   36.2961 T4         2 LUT      0.089537
    190 H372       88.4691   64.7044   37.0023 T4         2 LUT      0.089537
    191 H371       88.4571   63.3568   35.8687 T4         2 LUT      0.089537
    192 H363       90.3621   66.7812   35.4270 T4         2 LUT      0.089537
    193 H362       88.8434   67.7095   35.3390 T4         2 LUT      0.089537
    194 H361       89.3285   66.8054   36.7759 T4         2 LUT      0.089537
    195 H222       90.4295   64.8412   34.0071 U2         2 LUT      0.127376
    196 H221       88.9554   64.0547   33.4016 U2         2 LUT      0.127376
    197 H203       73.8973   62.8319   40.5961 R7         2 LUT      0.087068
    198 H202       75.5129   62.0722   40.7289 R7         2 LUT      0.087068
    199 H201       74.2288   61.4748   41.6074 R7         2 LUT      0.087068
    200 H193       70.9569   60.7642   43.5984 R4         2 LUT      0.089716
    201 H192       71.0065   59.8988   45.1651 R4         2 LUT      0.089716
    202 H191       69.5729   60.7607   44.7232 R4         2 LUT      0.089716
    203 H183       66.6337   64.0102   47.5658 R1         2 LUT      0.094572
    204 H182       67.9343   65.1873   47.6883 R1         2 LUT      0.094572
    205 H181       68.1221   63.8702   46.6565 R1         2 LUT      0.094572
    206 H173       69.7540   62.8024   51.6347 T4         2 LUT      0.093752
    207 H172       71.0353   61.6173   51.4636 T4         2 LUT      0.093752
    208 H171       70.9263   62.9133   50.3814 T4         2 LUT      0.093752
    209 H163       70.1710   59.6120   50.8175 T4         2 LUT      0.093752
    210 H162       69.6747   59.3480   49.1501 T4         2 LUT      0.093752
    211 H161       71.0653   60.0840   49.4537 T4         2 LUT      0.093752
    212 HO3        66.8437   62.1770   52.8554 Q1         2 LUT      0.300121
    213 H8         70.8130   63.4326   46.9766 U7         2 LUT      0.080784
    214 H7         69.4377   60.8114   47.1588 U6         2 LUT      0.042190
    215 H42        66.6333   64.1252   49.7651 U5         2 LUT      0.145166
    216 H41        68.0599   64.3327   50.6786 U5         2 LUT      0.145166
    217 H35        78.5747   65.4648   42.4791 T3         2 LUT      0.077919
    218 H34        79.3263   64.3628   39.7375 T2         2 LUT      0.073626
    219 H32        81.3217   64.7100   38.8494 T1         2 LUT      0.092510
    220 H31        82.8796   67.1025   39.6842 U9         2 LUT      0.070048
    221 H30        83.0563   65.1154   37.3156 U8         2 LUT      0.085442
    222 H3         66.0716   62.2279   50.6130 U3         2 LUT     -0.031596
    223 H28        84.8614   64.9866   35.9886 U7         2 LUT      0.084728
    224 H27        86.7377   67.3226   36.0643 U6         2 LUT      0.087291
    225 H26        86.8134   64.7099   34.5094 Q6         2 LUT      0.075325
    226 H24        87.8748   67.1103   31.5074 Q5         2 LUT      0.094482
    227 H23        89.8740   66.8298   33.0238 U3         2 LUT     -0.024869
    228 H22        67.5079   60.7221   49.8290 U2         2 LUT      0.127376
    229 H21        68.2931   60.5222   51.5045 U2         2 LUT      0.127376
    230 H15        77.0271   63.7938   40.3835 T3         2 LUT      0.093200
    231 H14        76.3408   64.5823   43.3914 T2         2 LUT      0.068865
    232 H12        74.3136   64.1498   44.3430 T1         2 LUT      0.095507
    233 H11        72.8124   61.8215   43.1142 U9         2 LUT      0.068930
    234 H10        72.4280   63.5801   45.6599 U8         2 LUT      0.083911
    235 H1         90.0918   65.8373   30.7740 Q1         2 LUT      0.297311
@<TRIPOS>BOND
    1     6     1 1
    2     7     2 1
    3     8     3 1
    4     9     4 1
    5    11     4 1
    6    12     6 1
    7    13     9 1
    8    16     9 1
    9    25     5 1
   10    25    16 1
   11    26    10 1
   12    26    17 1
   13    27    18 1
   14    28    14 1
   15    28    19 1
   16    29    12 1
   17    30    13 1
   18    31    24 1
   19    32     1 1
   20    32    25 1
   21    33    21 1
   22    33    26 1
   23    34    22 1
   24    34    27 1
   25    35    23 1
   26    35    28 1
   27    36    12 1
   28    36    24 1
   29    37    13 1
   30    37    15 1
   31    38    31 1
   32    39    20 1
   33    39    32 1
   34    40     2 1
   35    40    33 1
   36    41     3 1
   37    41    34 1
   38    42     4 1
   39    42    35 1
   40    43    38 1
   41    44     5 1
   42    44    17 1
   43    44    39 1
   44    45    10 1
   45    45    18 1
   46    45    40 1
   47    46    19 1
   48    46    41 1
   49    47    14 1
   50    47    16 1
   51    47    42 1
   52    48    38 1
   53    49    48 1
   54    50    49 1
   55    51    50 1
   56    52    51 1
   57    53    51 1
   58    54    53 1
   59    55    54 1
   60    56    55 1
   61    57    56 1
   62    58    56 1
   63    59    58 1
   64    60    59 1
   65    61    60 1
   66    62    61 1
   67    63    61 1
   68    64    27 1
   69    64    46 1
   70    65     5 1
   71    65    10 1
   72    65    64 1
   73    65    14 1
   74    66    23 1
   75    67    23 1
   76    68    23 1
   77    69    22 1
   78    70    22 1
   79    71    22 1
   80    72    21 1
   81    73    21 1
   82    74    21 1
   83    75    20 1
   84    76    20 1
   85    77    20 1
   86    78    15 1
   87    79    15 1
   88    80    15 1
   89    81     8 1
   90    82     8 1
   91    83     8 1
   92    84     7 1
   93    85     7 1
   94    86     6 1
   95    87     6 1
   96    88     3 1
   97    89     3 1
   98    90     1 1
   99    91     1 1
  100    92    63 1
  101    93    63 1
  102    94    63 1
  103    95    62 1
  104    96    62 1
  105    97    62 1
  106    98    60 1
  107    99    60 1
  108   100    59 1
  109   101    59 1
  110   102    58 1
  111   103    58 1
  112   104    57 1
  113   105    57 1
  114   106    57 1
  115   107    55 1
  116   108    55 1
  117   109    54 1
  118   110    54 1
  119   111    53 1
  120   112    53 1
  121   113    19 1
  122   114    18 1
  123   115    17 1
  124   116     9 1
  125   117     2 1
  126   118    52 1
  127   119    52 1
  128   120    52 1
  129   121    51 1
  130   122    50 1
  131   123    50 1
  132   124    49 1
  133   125    49 1
  134   126    48 1
  135   127    48 1
  136   128    43 1
  137   129    43 1
  138   130    43 1
  139   131    39 1
  140   132    32 1
  141   133    31 1
  142   134    61 1
  143   135    56 1
  144   136    24 1
  145   137    24 1
  146   139   138 1
  147   140   139 1
  148   141   140 1
  149   142   140 1
  150   143   142 1
  151   144   138 1
  152   144   143 1
  153   145   144 1
  154   146   145 1
  155   147   146 1
  156   148   147 1
  157   149   148 1
  158   150   149 1
  159   151   150 1
  160   152   151 1
  161   153   152 1
  162   154   138 1
  163   155   138 1
  164   156   143 1
  165   157   147 1
  166   158   151 1
  167   160   159 1
  168   161   160 1
  169   162   161 1
  170   163   161 1
  171   164   163 1
  172   165   159 1
  173   165   164 1
  174   166   165 1
  175   167   166 1
  176   168   167 1
  177   169   168 1
  178   170   169 1
  179   171   170 1
  180   172   171 1
  181   173   172 1
  182   174   153 1
  183   174   173 1
  184   175   159 1
  185   176   159 1
  186   177   164 1
  187   178   168 1
  188   179   172 1
  189   180   179 1
  190   181   179 1
  191   182   179 1
  192   183   178 1
  193   184   178 1
  194   185   178 1
  195   186   177 1
  196   187   177 1
  197   188   177 1
  198   189   176 1
  199   190   176 1
  200   191   176 1
  201   192   175 1
  202   193   175 1
  203   194   175 1
  204   195   160 1
  205   196   160 1
  206   197   158 1
  207   198   158 1
  208   199   158 1
  209   200   157 1
  210   201   157 1
  211   202   157 1
  212   203   156 1
  213   204   156 1
  214   205   156 1
  215   206   155 1
  216   207   155 1
  217   208   155 1
  218   209   154 1
  219   210   154 1
  220   211   154 1
  221   212   141 1
  222   213   146 1
  223   214   145 1
  224   215   142 1
  225   216   142 1
  226   217   174 1
  227   218   173 1
  228   219   171 1
  229   220   170 1
  230   221   169 1
  231   222   140 1
  232   223   167 1
  233   224   166 1
  234   225   165 1
  235   226   163 1
  236   227   161 1
  237   228   139 1
  238   229   139 1
  239   230   153 1
  240   231   152 1
  241   232   150 1
  242   233   149 1
  243   234   148 1
  244   235   162 1
  245   65    153 1
  246   65    174 1
@<TRIPOS>SUBSTRUCTURE
      1 CLA               1 ****               0 ****  **** 
      2 LUT             138 ****               0 ****  **** 
