@<TRIPOS>MOLECULE
Cpptraj generated mol2 file.
  235   246     2     0     0
SMALL
USER_CHARGES


@<TRIPOS>ATOM
      1 CAA        79.8562   58.0622   34.4198 a2         1 CLA     -0.055900
      2 CAB        79.7962   62.5086   43.2289 c8         1 CLA     -0.148500
      3 CAC        73.0051   58.5092   43.2590 a2         1 CLA     -0.012600
      4 CAD        75.4745   55.9137   35.9187 ck         1 CLA      0.398800
      5 NA         78.7220   58.8652   37.8447 ns         1 CLA     -0.225500
      6 CBA        81.0861   57.6990   33.7303 a2         1 CLA     -0.135000
      7 CBB        80.7463   62.3218   44.1862 c0         1 CLA     -0.395200
      8 CBC        73.1809   57.0072   43.5469 a3         1 CLA     -0.037700
      9 CBD        76.9512   56.4253   35.5494 a1         1 CLA     -0.053900
     10 NB         78.6477   60.4482   40.4468 nm         1 CLA     -0.295700
     11 OBD        74.7492   55.0328   35.4586 o2         1 CLA     -0.494600
     12 CGA        81.2599   56.2611   33.2939 c4         1 CLA      0.827000
     13 CGD        77.9236   55.2258   35.5257 c4         1 CLA      0.655300
     14 ND         75.9340   58.1759   38.6214 nm         1 CLA     -0.291600
     15 CED        78.4053   53.1995   36.7162 a3         1 CLA      0.005400
     16 CHA        77.2935   57.4257   36.5624 cs         1 CLA     -0.123800
     17 CHB        80.5158   60.0678   38.8411 aa         1 CLA     -0.291900
     18 CHC        77.4004   60.8693   42.5375 aa         1 CLA     -0.090400
     19 CHD        73.9948   58.2295   40.1903 aa         1 CLA     -0.052000
     20 CMA        82.0759   57.8831   37.2924 a3         1 CLA     -0.230700
     21 CMB        82.1165   61.8178   40.9299 a3         1 CLA     -0.180800
     22 CMC        75.2474   60.3668   44.7423 a3         1 CLA     -0.134000
     23 CMD        72.6539   56.3700   37.8730 a3         1 CLA     -0.141100
     24 C1         82.2424   54.2335   33.8209 a2         1 CLA      0.023000
     25 C1A        78.5244   58.0515   36.7243 ac         1 CLA     -0.015100
     26 C1B        79.9264   60.5404   40.0596 cr         1 CLA      0.054700
     27 C1C        76.2078   60.1418   42.3088 cn         1 CLA     -0.005600
     28 C1D        74.6035   57.8124   38.9614 ap         1 CLA     -0.047300
     29 O1A        81.0222   55.8273   32.2317 o2         1 CLA     -0.610800
     30 O1D        78.5050   54.8921   34.5197 o2         1 CLA     -0.558200
     31 C2         82.8228   53.5408   34.9792 c8         1 CLA     -0.325100
     32 C2A        79.8730   57.7684   35.9313 a1         1 CLA      0.098600
     33 C2B        80.6460   61.3798   41.0702 cb         1 CLA      0.088500
     34 C2C        75.1984   59.8557   43.3003 cb         1 CLA      0.053700
     35 C2D        74.0281   56.9850   37.9517 cb         1 CLA      0.058900
     36 O2A        81.8628   55.5101   34.2713 o1         1 CLA     -0.437200
     37 O2D        77.8445   54.5639   36.7402 o1         1 CLA     -0.357600
     38 C3         84.1009   53.0604   34.9611 c5         1 CLA      0.031200
     39 C3A        80.8527   58.6011   36.8055 a1         1 CLA      0.166800
     40 C3B        79.7609   61.5914   42.1275 cb         1 CLA      0.035000
     41 C3C        74.2297   59.1196   42.5872 cb         1 CLA     -0.089900
     42 C3D        75.1213   56.7776   37.1034 cb         1 CLA     -0.035900
     43 C4         84.2810   51.7111   34.3362 a3         1 CLA     -0.053300
     44 C4A        80.0326   59.1913   37.9371 ac         1 CLA      0.001800
     45 C4B        78.5227   61.0510   41.7054 cn         1 CLA     -0.020900
     46 C4C        74.6114   58.9857   41.2046 cr         1 CLA     -0.044400
     47 C4D        76.2343   57.4704   37.4791 c6         1 CLA     -0.046000
     48 C5         85.2551   53.9415   35.2922 a2         1 CLA     -0.070400
     49 C6         85.2085   54.1827   36.8467 a2         1 CLA      0.043900
     50 C7         86.5547   54.6910   37.3114 a2         1 CLA     -0.150000
     51 C8         86.4245   55.5973   38.6105 a1         1 CLA      0.064200
     52 C9         85.9333   56.9933   38.3005 a3         1 CLA     -0.259300
     53 C10        87.8187   55.8172   39.3224 a2         1 CLA     -0.071900
     54 C11        87.8319   56.7422   40.5406 a2         1 CLA      0.014500
     55 C12        89.0162   56.4614   41.4684 a2         1 CLA     -0.112100
     56 C13        89.0239   57.4461   42.7289 a1         1 CLA      0.089200
     57 C14        90.3851   57.1820   43.4466 a3         1 CLA     -0.239100
     58 C15        87.8659   57.0381   43.7034 a2         1 CLA     -0.102200
     59 C16        87.8155   57.7939   45.0372 a2         1 CLA      0.023900
     60 C17        86.5914   57.3304   45.7827 a2         1 CLA     -0.105700
     61 C18        86.4719   57.9687   47.2035 a1         1 CLA      0.206800
     62 C19        84.9587   58.2379   47.6059 a3         1 CLA     -0.280100
     63 C20        87.2756   57.2635   48.2821 a3         1 CLA     -0.280100
     64 NC         75.8703   59.5354   41.1088 nx         1 CLA     -0.309200
     65 MG         77.2266   59.4291   39.4568 mg         1 CLA      0.895000
     66 HMD3       72.3324   56.1395   38.8841 dc         1 CLA      0.064300
     67 HMD2       71.9562   57.1264   37.4858 dc         1 CLA      0.064300
     68 HMD1       72.7559   55.4670   37.3063 dc         1 CLA      0.064300
     69 HMC3       74.4051   59.9415   45.3267 dc         1 CLA      0.052100
     70 HMC2       76.1822   60.1286   45.1814 dc         1 CLA      0.052100
     71 HMC1       75.1158   61.4235   44.5708 dc         1 CLA      0.052100
     72 HMB3       82.1521   62.3645   39.9629 dc         1 CLA      0.063600
     73 HMB2       82.2469   62.4283   41.8463 dc         1 CLA      0.063600
     74 HMB1       82.7144   60.9671   40.6959 dc         1 CLA      0.063600
     75 HMA3       82.6825   57.6128   36.4669 dc         1 CLA      0.058300
     76 HMA2       82.6193   58.6493   37.7965 dc         1 CLA      0.058300
     77 HMA1       81.9268   57.0034   37.9800 dc         1 CLA      0.058300
     78 HED3       79.4856   53.2846   36.4159 dc         1 CLA      0.079300
     79 HED2       78.3601   52.7374   37.6682 dc         1 CLA      0.079300
     80 HED1       77.8645   52.6199   35.9867 dc         1 CLA      0.079300
     81 HBC3       74.2609   56.8022   43.6301 dc         1 CLA      0.016300
     82 HBC2       72.6344   56.5843   44.3743 dc         1 CLA      0.016300
     83 HBC1       72.9086   56.5250   42.6355 dc         1 CLA      0.016300
     84 HBB2       80.8226   62.9314   45.0843 da         1 CLA      0.183000
     85 HBB1       81.5696   61.6170   43.9376 da         1 CLA      0.183000
     86 HBA2       81.2534   58.3323   32.8614 dc         1 CLA      0.029400
     87 HBA1       81.9627   57.9651   34.3219 dc         1 CLA      0.029400
     88 HAC2       72.8783   58.8514   44.2955 dc         1 CLA      0.029300
     89 HAC1       72.0849   58.7567   42.6993 dc         1 CLA      0.029300
     90 HAA2       79.1023   57.4322   33.9367 dc         1 CLA      0.028700
     91 HAA1       79.5827   59.0591   34.1591 dc         1 CLA      0.028700
     92 H203       87.3944   57.7189   49.2681 dc         1 CLA      0.065600
     93 H202       86.6889   56.3467   48.4445 dc         1 CLA      0.065600
     94 H201       88.2213   56.9978   47.8918 dc         1 CLA      0.065600
     95 H193       84.8670   58.6355   48.6367 dc         1 CLA      0.065600
     96 H192       84.4795   58.8975   46.7978 dc         1 CLA      0.065600
     97 H191       84.4890   57.2574   47.5240 dc         1 CLA      0.065600
     98 H172       85.7621   57.6735   45.1748 dc         1 CLA      0.027600
     99 H171       86.6191   56.2375   45.8387 dc         1 CLA      0.027600
    100 H162       88.6066   57.4821   45.6613 dc         1 CLA      0.002900
    101 H161       87.8331   58.8627   44.7667 dc         1 CLA      0.002900
    102 H152       86.8970   56.9729   43.2280 dc         1 CLA      0.029100
    103 H151       88.0982   55.9641   43.7129 dc         1 CLA      0.029100
    104 H143       90.4561   56.1373   43.9496 dc         1 CLA      0.063600
    105 H142       91.0856   57.3107   42.6408 dc         1 CLA      0.063600
    106 H141       90.5232   57.8810   44.1831 dc         1 CLA      0.063600
    107 H122       89.0339   55.4325   41.7831 dc         1 CLA      0.032500
    108 H121       89.8569   56.6099   40.7696 dc         1 CLA      0.032500
    109 H112       87.9026   57.7860   40.2484 dc         1 CLA      0.006600
    110 H111       86.8732   56.7693   41.1188 dc         1 CLA      0.006600
    111 H102       88.1099   54.8448   39.6033 dc         1 CLA      0.024100
    112 H101       88.6600   56.0061   38.5683 dc         1 CLA      0.024100
    113 HHD        73.0248   57.7997   40.4816 da         1 CLA      0.174300
    114 HHC        77.4769   61.3095   43.5129 da         1 CLA      0.136800
    115 HHB        81.5214   60.3494   38.6508 da         1 CLA      0.138300
    116 HBD        76.7837   56.8159   34.4861 dc         1 CLA      0.107700
    117 HAB        78.9841   63.2164   43.3551 da         1 CLA      0.155200
    118 H93        84.8530   57.0323   38.0511 dc         1 CLA      0.069500
    119 H92        85.8405   57.6832   39.1033 dc         1 CLA      0.069500
    120 H91        86.4371   57.3929   37.4495 dc         1 CLA      0.069500
    121 H8         85.7356   55.1484   39.3068 dc         1 CLA      0.029300
    122 H72        87.0910   53.8275   37.6367 dc         1 CLA      0.044400
    123 H71        87.1591   55.3042   36.5769 dc         1 CLA      0.044400
    124 H62        84.3782   54.9172   37.0388 dc         1 CLA      0.015600
    125 H61        84.9368   53.2453   37.3601 dc         1 CLA      0.015600
    126 H52        86.1752   53.4951   34.9680 dc         1 CLA      0.033200
    127 H51        85.2615   54.8838   34.7430 dc         1 CLA      0.033200
    128 H43        84.2583   51.7208   33.3113 dc         1 CLA      0.037000
    129 H42        85.2199   51.2501   34.6795 dc         1 CLA      0.037000
    130 H41        83.5087   51.0298   34.6723 dc         1 CLA      0.037000
    131 H3A        81.2471   59.4530   36.2205 dc         1 CLA      0.041100
    132 H2A        80.0492   56.7359   36.1198 dc         1 CLA      0.083100
    133 H2         82.2080   53.4133   35.8650 da         1 CLA      0.180900
    134 H18        86.9776   58.9017   47.1742 dc         1 CLA     -0.003900
    135 H13        88.8825   58.5148   42.4802 dc         1 CLA      0.019700
    136 H12        81.3068   53.7191   33.5868 dc         1 CLA      0.120400
    137 H11        82.9375   54.1223   32.9607 dc         1 CLA      0.120400
    138 C1         69.0690   62.2393   50.4871 Z1         2 LUT      0.509236
    139 C2         68.8883   63.4358   51.4294 Z2         2 LUT     -0.434695
    140 C3         67.5459   64.2280   51.2915 Z3         2 LUT      0.437453
    141 O3         67.8756   65.6007   51.7800 S1         2 LUT     -0.547129
    142 C4         67.1063   64.3140   49.8177 Z4         2 LUT     -0.468603
    143 C5         67.9254   63.6568   48.7319 Z5         2 LUT      0.279246
    144 C6         68.8545   62.7540   49.0103 Z6         2 LUT     -0.305473
    145 C7         69.6588   62.1068   47.9429 Z7         2 LUT      0.069402
    146 C8         70.5476   62.7483   47.0910 Z8         2 LUT     -0.191631
    147 C9         71.1570   62.2038   45.8818 Z9         2 LUT      0.196698
    148 C10        72.0081   63.1058   45.2929 Y1         2 LUT     -0.208611
    149 C11        72.7361   62.9803   44.0471 Y2         2 LUT      0.030784
    150 C12        73.6625   63.8915   43.6421 Y3         2 LUT     -0.220316
    151 C13        74.6235   63.7226   42.4937 Y4         2 LUT      0.215937
    152 C14        75.7143   64.5023   42.4696 Y5         2 LUT     -0.185793
    153 C15        76.8883   64.3471   41.6269 Y6         2 LUT     -0.057835
    154 C16        67.9269   61.2474   50.8142 Y7         2 LUT     -0.405615
    155 C17        70.3211   61.4178   50.8450 Y7         2 LUT     -0.405615
    156 C18        67.6377   64.2206   47.3419 Y9         2 LUT     -0.369639
    157 C19        70.7639   60.7604   45.4115 W1         2 LUT     -0.333362
    158 C20        74.0974   62.9945   41.3159 W2         2 LUT     -0.323439
    159 C21        88.4172   65.2410   35.2588 Z1         2 LUT      0.406104
    160 C22        88.9583   64.6507   34.0153 Z2         2 LUT     -0.404965
    161 C23        89.0092   65.5085   32.7838 Z3         2 LUT      0.391255
    162 O23        89.2869   64.5980   31.7304 S1         2 LUT     -0.528210
    163 C24        87.7104   66.3078   32.6369 W6         2 LUT     -0.258361
    164 C25        86.9420   66.6130   33.7305 Z5         2 LUT      0.133546
    165 C26        87.0729   65.9276   35.0506 W8         2 LUT     -0.147008
    166 C27        86.4323   66.5892   36.3016 Z7         2 LUT      0.023843
    167 C28        85.1142   66.4227   36.6885 Z8         2 LUT     -0.216987
    168 C29        84.5387   66.7642   37.9612 Z9         2 LUT      0.206524
    169 C30        83.3438   66.1251   38.3231 Y1         2 LUT     -0.215556
    170 C31        82.5578   66.1797   39.5520 Y2         2 LUT      0.025142
    171 C32        81.3308   65.5896   39.7456 Y3         2 LUT     -0.212209
    172 C33        80.3926   65.6805   40.8647 Y4         2 LUT      0.240937
    173 C34        79.2375   64.8894   40.8355 Y5         2 LUT     -0.218862
    174 C35        78.1416   65.0438   41.8106 Y6         2 LUT     -0.023547
    175 C36        89.5497   66.2525   35.7457 Y7         2 LUT     -0.393485
    176 C37        88.4764   64.1972   36.4129 Y7         2 LUT     -0.393485
    177 C38        85.6888   67.4317   33.5758 Y9         2 LUT     -0.387526
    178 C39        85.3437   67.6667   38.9274 W1         2 LUT     -0.322618
    179 C40        80.8187   66.3688   42.1463 W2         2 LUT     -0.358472
    180 H403       81.8892   66.5554   42.1999 R7         2 LUT      0.097720
    181 H402       80.3300   67.3332   42.4028 R7         2 LUT      0.097720
    182 H401       80.5285   65.7162   43.0279 R7         2 LUT      0.097720
    183 H393       84.8730   67.5560   39.8887 R4         2 LUT      0.082505
    184 H392       86.3392   67.2340   39.0269 R4         2 LUT      0.082505
    185 H391       85.3860   68.6829   38.6830 R4         2 LUT      0.082505
    186 H383       84.9762   66.9117   32.9823 R1         2 LUT      0.104030
    187 H382       85.1297   67.7494   34.4560 R1         2 LUT      0.104030
    188 H381       86.0627   68.3486   33.1488 R1         2 LUT      0.104030
    189 H373       89.4765   63.6890   36.6324 T4         2 LUT      0.089537
    190 H372       88.1558   64.5179   37.3897 T4         2 LUT      0.089537
    191 H371       87.7599   63.3893   36.1536 T4         2 LUT      0.089537
    192 H363       89.9249   66.9501   35.1394 T4         2 LUT      0.089537
    193 H362       89.2240   66.8374   36.6464 T4         2 LUT      0.089537
    194 H361       90.5074   65.7842   35.9373 T4         2 LUT      0.089537
    195 H222       89.9323   64.3376   34.2172 U2         2 LUT      0.127376
    196 H221       88.3807   63.7170   33.7839 U2         2 LUT      0.127376
    197 H203       73.8030   61.9550   41.5127 R7         2 LUT      0.087068
    198 H202       73.1928   63.3811   40.8489 R7         2 LUT      0.087068
    199 H201       74.7757   62.8466   40.4710 R7         2 LUT      0.087068
    200 H193       71.5147   60.4351   44.6507 R4         2 LUT      0.089716
    201 H192       70.7542   59.9842   46.2136 R4         2 LUT      0.089716
    202 H191       69.8092   60.8090   44.9908 R4         2 LUT      0.089716
    203 H183       68.3997   64.9611   47.1513 R1         2 LUT      0.094572
    204 H182       67.7466   63.5430   46.4809 R1         2 LUT      0.094572
    205 H181       66.5736   64.5263   47.4043 R1         2 LUT      0.094572
    206 H173       71.1746   61.9369   50.4405 T4         2 LUT      0.093752
    207 H172       70.5320   61.3703   51.9030 T4         2 LUT      0.093752
    208 H171       70.4431   60.3973   50.5837 T4         2 LUT      0.093752
    209 H163       68.1905   60.2559   50.4151 T4         2 LUT      0.093752
    210 H162       67.8065   61.0993   51.9101 T4         2 LUT      0.093752
    211 H161       66.9876   61.6428   50.4016 T4         2 LUT      0.093752
    212 HO3        67.1320   66.1970   51.8485 Q1         2 LUT      0.300121
    213 H8         70.7454   63.8179   47.1798 U7         2 LUT      0.080784
    214 H7         69.6608   61.0348   48.0758 U6         2 LUT      0.042190
    215 H42        66.0944   63.9567   49.8383 U5         2 LUT      0.145166
    216 H41        67.0414   65.3815   49.4368 U5         2 LUT      0.145166
    217 H35        78.2472   65.7852   42.6405 T3         2 LUT      0.077919
    218 H34        79.0312   64.2242   39.9826 T2         2 LUT      0.073626
    219 H32        80.9447   64.9260   38.9664 T1         2 LUT      0.092510
    220 H31        82.9033   66.8109   40.3937 U9         2 LUT      0.070048
    221 H30        82.9001   65.5058   37.5559 U8         2 LUT      0.085442
    222 H3         66.8609   63.7446   51.9693 U3         2 LUT     -0.031596
    223 H28        84.4080   66.0800   35.9383 U7         2 LUT      0.084728
    224 H27        87.1499   66.8735   36.9776 U6         2 LUT      0.087291
    225 H26        86.5695   65.1069   34.6052 Q6         2 LUT      0.075325
    226 H24        87.4664   66.8987   31.7016 Q5         2 LUT      0.094482
    227 H23        89.8985   66.1568   32.7140 U3         2 LUT     -0.024869
    228 H22        68.8365   63.1080   52.4567 U2         2 LUT      0.127376
    229 H21        69.6429   64.1833   51.2044 U2         2 LUT      0.127376
    230 H15        76.9184   63.6862   40.7849 T3         2 LUT      0.093200
    231 H14        75.8152   65.3334   43.0878 T2         2 LUT      0.068865
    232 H12        73.8304   64.6814   44.3412 T1         2 LUT      0.095507
    233 H11        72.5521   62.1084   43.4740 U9         2 LUT      0.068930
    234 H10        72.0479   64.0713   45.7018 U8         2 LUT      0.083911
    235 H1         89.7016   64.9420   30.9392 Q1         2 LUT      0.297311
@<TRIPOS>BOND
    1     6     1 1
    2     7     2 1
    3     8     3 1
    4     9     4 1
    5    11     4 1
    6    12     6 1
    7    13     9 1
    8    16     9 1
    9    25     5 1
   10    25    16 1
   11    26    10 1
   12    26    17 1
   13    27    18 1
   14    28    14 1
   15    28    19 1
   16    29    12 1
   17    30    13 1
   18    31    24 1
   19    32     1 1
   20    32    25 1
   21    33    21 1
   22    33    26 1
   23    34    22 1
   24    34    27 1
   25    35    23 1
   26    35    28 1
   27    36    12 1
   28    36    24 1
   29    37    13 1
   30    37    15 1
   31    38    31 1
   32    39    20 1
   33    39    32 1
   34    40     2 1
   35    40    33 1
   36    41     3 1
   37    41    34 1
   38    42     4 1
   39    42    35 1
   40    43    38 1
   41    44     5 1
   42    44    17 1
   43    44    39 1
   44    45    10 1
   45    45    18 1
   46    45    40 1
   47    46    19 1
   48    46    41 1
   49    47    14 1
   50    47    16 1
   51    47    42 1
   52    48    38 1
   53    49    48 1
   54    50    49 1
   55    51    50 1
   56    52    51 1
   57    53    51 1
   58    54    53 1
   59    55    54 1
   60    56    55 1
   61    57    56 1
   62    58    56 1
   63    59    58 1
   64    60    59 1
   65    61    60 1
   66    62    61 1
   67    63    61 1
   68    64    27 1
   69    64    46 1
   70    65     5 1
   71    65    10 1
   72    65    64 1
   73    65    14 1
   74    66    23 1
   75    67    23 1
   76    68    23 1
   77    69    22 1
   78    70    22 1
   79    71    22 1
   80    72    21 1
   81    73    21 1
   82    74    21 1
   83    75    20 1
   84    76    20 1
   85    77    20 1
   86    78    15 1
   87    79    15 1
   88    80    15 1
   89    81     8 1
   90    82     8 1
   91    83     8 1
   92    84     7 1
   93    85     7 1
   94    86     6 1
   95    87     6 1
   96    88     3 1
   97    89     3 1
   98    90     1 1
   99    91     1 1
  100    92    63 1
  101    93    63 1
  102    94    63 1
  103    95    62 1
  104    96    62 1
  105    97    62 1
  106    98    60 1
  107    99    60 1
  108   100    59 1
  109   101    59 1
  110   102    58 1
  111   103    58 1
  112   104    57 1
  113   105    57 1
  114   106    57 1
  115   107    55 1
  116   108    55 1
  117   109    54 1
  118   110    54 1
  119   111    53 1
  120   112    53 1
  121   113    19 1
  122   114    18 1
  123   115    17 1
  124   116     9 1
  125   117     2 1
  126   118    52 1
  127   119    52 1
  128   120    52 1
  129   121    51 1
  130   122    50 1
  131   123    50 1
  132   124    49 1
  133   125    49 1
  134   126    48 1
  135   127    48 1
  136   128    43 1
  137   129    43 1
  138   130    43 1
  139   131    39 1
  140   132    32 1
  141   133    31 1
  142   134    61 1
  143   135    56 1
  144   136    24 1
  145   137    24 1
  146   139   138 1
  147   140   139 1
  148   141   140 1
  149   142   140 1
  150   143   142 1
  151   144   138 1
  152   144   143 1
  153   145   144 1
  154   146   145 1
  155   147   146 1
  156   148   147 1
  157   149   148 1
  158   150   149 1
  159   151   150 1
  160   152   151 1
  161   153   152 1
  162   154   138 1
  163   155   138 1
  164   156   143 1
  165   157   147 1
  166   158   151 1
  167   160   159 1
  168   161   160 1
  169   162   161 1
  170   163   161 1
  171   164   163 1
  172   165   159 1
  173   165   164 1
  174   166   165 1
  175   167   166 1
  176   168   167 1
  177   169   168 1
  178   170   169 1
  179   171   170 1
  180   172   171 1
  181   173   172 1
  182   174   153 1
  183   174   173 1
  184   175   159 1
  185   176   159 1
  186   177   164 1
  187   178   168 1
  188   179   172 1
  189   180   179 1
  190   181   179 1
  191   182   179 1
  192   183   178 1
  193   184   178 1
  194   185   178 1
  195   186   177 1
  196   187   177 1
  197   188   177 1
  198   189   176 1
  199   190   176 1
  200   191   176 1
  201   192   175 1
  202   193   175 1
  203   194   175 1
  204   195   160 1
  205   196   160 1
  206   197   158 1
  207   198   158 1
  208   199   158 1
  209   200   157 1
  210   201   157 1
  211   202   157 1
  212   203   156 1
  213   204   156 1
  214   205   156 1
  215   206   155 1
  216   207   155 1
  217   208   155 1
  218   209   154 1
  219   210   154 1
  220   211   154 1
  221   212   141 1
  222   213   146 1
  223   214   145 1
  224   215   142 1
  225   216   142 1
  226   217   174 1
  227   218   173 1
  228   219   171 1
  229   220   170 1
  230   221   169 1
  231   222   140 1
  232   223   167 1
  233   224   166 1
  234   225   165 1
  235   226   163 1
  236   227   161 1
  237   228   139 1
  238   229   139 1
  239   230   153 1
  240   231   152 1
  241   232   150 1
  242   233   149 1
  243   234   148 1
  244   235   162 1
  245   65    153 1
  246   65    174 1
@<TRIPOS>SUBSTRUCTURE
      1 CLA               1 ****               0 ****  **** 
      2 LUT             138 ****               0 ****  **** 
