@<TRIPOS>MOLECULE
Cpptraj generated mol2 file.
  235   246     2     0     0
SMALL
USER_CHARGES


@<TRIPOS>ATOM
      1 CAA        79.1586   59.1569   33.6035 a2         1 CLA     -0.055900
      2 CAB        79.3455   62.5688   42.6784 c8         1 CLA     -0.148500
      3 CAC        72.4110   58.4536   42.1512 a2         1 CLA     -0.012600
      4 CAD        74.8142   56.5432   34.7028 ck         1 CLA      0.398800
      5 NA         78.2154   59.1294   37.0188 ns         1 CLA     -0.225500
      6 CBA        80.4618   59.0778   32.7104 a2         1 CLA     -0.135000
      7 CBB        80.5070   62.5662   43.3855 c0         1 CLA     -0.395200
      8 CBC        72.2769   56.8684   42.0387 a3         1 CLA     -0.037700
      9 CBD        76.2850   57.1136   34.3885 a1         1 CLA     -0.053900
     10 NB         78.1679   60.6858   39.7096 nm         1 CLA     -0.295700
     11 OBD        74.1609   55.7951   34.0324 o2         1 CLA     -0.494600
     12 CGA        80.8192   57.6986   32.2700 c4         1 CLA      0.827000
     13 CGD        77.2693   56.0210   33.9502 c4         1 CLA      0.655300
     14 ND         75.3381   58.4368   37.6316 nm         1 CLA     -0.291600
     15 CED        77.8553   53.7382   34.0758 a3         1 CLA      0.005400
     16 CHA        76.7241   57.9534   35.5882 cs         1 CLA     -0.123800
     17 CHB        80.0427   60.3572   38.1380 aa         1 CLA     -0.291900
     18 CHC        76.8269   61.0334   41.7457 aa         1 CLA     -0.090400
     19 CHD        73.5862   58.1793   39.2602 aa         1 CLA     -0.052000
     20 CMA        81.3047   57.9656   36.5664 a3         1 CLA     -0.230700
     21 CMB        81.4688   62.1444   40.1057 a3         1 CLA     -0.180800
     22 CMC        74.4214   60.4432   43.7871 a3         1 CLA     -0.134000
     23 CMD        72.1380   56.6427   37.0210 a3         1 CLA     -0.141100
     24 C1         81.8265   55.5849   32.7990 a2         1 CLA      0.023000
     25 C1A        77.9626   58.4887   35.8310 ac         1 CLA     -0.015100
     26 C1B        79.4612   60.8448   39.3553 cr         1 CLA      0.054700
     27 C1C        75.6386   60.2832   41.4286 cn         1 CLA     -0.005600
     28 C1D        74.1351   57.8652   38.0137 ap         1 CLA     -0.047300
     29 O1A        80.5581   57.1964   31.1557 o2         1 CLA     -0.610800
     30 O1D        77.9789   56.1649   32.9470 o2         1 CLA     -0.558200
     31 C2         82.5710   54.9575   33.9219 c8         1 CLA     -0.325100
     32 C2A        79.2992   58.4352   35.0037 a1         1 CLA      0.098600
     33 C2B        80.1408   61.6737   40.3315 cb         1 CLA      0.088500
     34 C2C        74.5505   59.9407   42.3942 cb         1 CLA      0.053700
     35 C2D        73.5430   57.1169   36.9628 cb         1 CLA      0.058900
     36 O2A        81.4858   56.9504   33.2189 o1         1 CLA     -0.437200
     37 O2D        77.0459   54.8062   34.6561 o1         1 CLA     -0.357600
     38 C3         83.5907   54.0903   33.7656 c5         1 CLA      0.031200
     39 C3A        80.3464   59.0213   35.9758 a1         1 CLA      0.166800
     40 C3B        79.1993   61.9384   41.3383 cb         1 CLA      0.035000
     41 C3C        73.7086   59.0820   41.6590 cb         1 CLA     -0.089900
     42 C3D        74.5540   57.0875   35.9965 cb         1 CLA     -0.035900
     43 C4         83.2247   52.6291   33.7972 a3         1 CLA     -0.053300
     44 C4A        79.4630   59.5966   37.1056 ac         1 CLA      0.001800
     45 C4B        77.9720   61.2481   40.9830 cn         1 CLA     -0.020900
     46 C4C        74.2154   58.9443   40.3257 cr         1 CLA     -0.044400
     47 C4D        75.6023   57.8969   36.4465 c6         1 CLA     -0.046000
     48 C5         85.0755   54.3385   33.7010 a2         1 CLA     -0.070400
     49 C6         85.6233   55.5907   34.4589 a2         1 CLA      0.043900
     50 C7         85.6867   55.3297   36.0095 a2         1 CLA     -0.150000
     51 C8         86.2610   56.5180   36.8899 a1         1 CLA      0.064200
     52 C9         87.7110   56.8047   36.4791 a3         1 CLA     -0.259300
     53 C10        86.1622   56.3532   38.4713 a2         1 CLA     -0.071900
     54 C11        86.0955   57.7685   39.1717 a2         1 CLA      0.014500
     55 C12        86.1230   57.5987   40.7263 a2         1 CLA     -0.112100
     56 C13        85.8755   58.8366   41.5224 a1         1 CLA      0.089200
     57 C14        87.1122   59.8125   41.5363 a3         1 CLA     -0.239100
     58 C15        85.3689   58.5294   43.0109 a2         1 CLA     -0.102200
     59 C16        84.9449   59.7398   43.9206 a2         1 CLA      0.023900
     60 C17        84.6399   59.4367   45.3505 a2         1 CLA     -0.105700
     61 C18        84.4478   60.6930   46.2665 a1         1 CLA      0.206800
     62 C19        83.2296   61.5428   46.1051 a3         1 CLA     -0.280100
     63 C20        84.5112   60.3561   47.7891 a3         1 CLA     -0.280100
     64 NC         75.4206   59.5938   40.2523 nx         1 CLA     -0.309200
     65 MG         76.7116   59.6239   38.6571 mg         1 CLA      0.895000
     66 HMD3       71.5993   57.5418   37.0816 dc         1 CLA      0.064300
     67 HMD2       71.8488   56.1763   36.1197 dc         1 CLA      0.064300
     68 HMD1       72.0739   55.9715   37.8516 dc         1 CLA      0.064300
     69 HMC3       74.9232   61.4005   43.9924 dc         1 CLA      0.052100
     70 HMC2       73.4350   60.3233   44.2611 dc         1 CLA      0.052100
     71 HMC1       74.9236   59.7324   44.4132 dc         1 CLA      0.052100
     72 HMB3       81.7087   62.5854   41.0963 dc         1 CLA      0.063600
     73 HMB2       82.1765   61.3568   39.9629 dc         1 CLA      0.063600
     74 HMB1       81.3821   62.9241   39.3611 dc         1 CLA      0.063600
     75 HMA3       80.8500   57.1778   37.0312 dc         1 CLA      0.058300
     76 HMA2       81.9576   57.5585   35.7304 dc         1 CLA      0.058300
     77 HMA1       82.0033   58.4685   37.2813 dc         1 CLA      0.058300
     78 HED3       78.8779   53.9839   34.0285 dc         1 CLA      0.079300
     79 HED2       77.6250   52.9709   34.7039 dc         1 CLA      0.079300
     80 HED1       77.4650   53.4846   33.1044 dc         1 CLA      0.079300
     81 HBC3       73.1328   56.2588   42.3540 dc         1 CLA      0.016300
     82 HBC2       71.4655   56.5460   42.6875 dc         1 CLA      0.016300
     83 HBC1       71.9245   56.6727   40.9760 dc         1 CLA      0.016300
     84 HBB2       80.4978   62.9333   44.4296 da         1 CLA      0.183000
     85 HBB1       81.4476   62.1135   43.0848 da         1 CLA      0.183000
     86 HBA2       80.3490   59.7387   31.8937 dc         1 CLA      0.029400
     87 HBA1       81.2978   59.5555   33.2877 dc         1 CLA      0.029400
     88 HAC2       72.2813   58.6290   43.1613 dc         1 CLA      0.029300
     89 HAC1       71.5103   58.8192   41.6624 dc         1 CLA      0.029300
     90 HAA2       78.3895   58.5373   33.1736 dc         1 CLA      0.028700
     91 HAA1       78.8649   60.1796   33.7338 dc         1 CLA      0.028700
     92 H203       85.4046   59.6741   47.9413 dc         1 CLA      0.065600
     93 H202       84.6985   61.2735   48.3716 dc         1 CLA      0.065600
     94 H201       83.6559   59.8138   48.1030 dc         1 CLA      0.065600
     95 H193       83.2357   62.0959   45.2018 dc         1 CLA      0.065600
     96 H192       82.3311   60.9456   46.2781 dc         1 CLA      0.065600
     97 H191       83.2591   62.3023   46.9337 dc         1 CLA      0.065600
     98 H172       83.6921   58.9388   45.3329 dc         1 CLA      0.027600
     99 H171       85.2996   58.7811   45.8322 dc         1 CLA      0.027600
    100 H162       85.7890   60.4861   44.0001 dc         1 CLA      0.002900
    101 H161       84.0717   60.1619   43.5123 dc         1 CLA      0.002900
    102 H152       84.5302   57.9240   42.9464 dc         1 CLA      0.029100
    103 H151       86.1559   57.8927   43.3590 dc         1 CLA      0.029100
    104 H143       87.8623   59.3190   42.0882 dc         1 CLA      0.063600
    105 H142       87.6149   59.9795   40.6286 dc         1 CLA      0.063600
    106 H141       86.9168   60.7450   42.0295 dc         1 CLA      0.063600
    107 H122       85.3414   56.8984   40.9958 dc         1 CLA      0.032500
    108 H121       87.0502   57.1519   41.0673 dc         1 CLA      0.032500
    109 H112       86.8733   58.3904   38.7330 dc         1 CLA      0.006600
    110 H111       85.2278   58.2698   38.9528 dc         1 CLA      0.006600
    111 H102       85.2603   55.8704   38.6951 dc         1 CLA      0.024100
    112 H101       86.9790   55.8122   38.8784 dc         1 CLA      0.024100
    113 HHD        72.5524   57.8363   39.3039 da         1 CLA      0.174300
    114 HHC        76.8385   61.4355   42.7783 da         1 CLA      0.136800
    115 HHB        81.0214   60.6244   37.9292 da         1 CLA      0.138300
    116 HBD        76.2129   57.8906   33.6570 dc         1 CLA      0.107700
    117 HAB        78.4808   63.2320   43.0322 da         1 CLA      0.155200
    118 H93        88.2518   57.4573   37.1830 dc         1 CLA      0.069500
    119 H92        88.2142   55.9281   36.3726 dc         1 CLA      0.069500
    120 H91        87.5767   57.2298   35.4695 dc         1 CLA      0.069500
    121 H8         85.6300   57.2969   36.5230 dc         1 CLA      0.029300
    122 H72        84.6223   55.1479   36.2269 dc         1 CLA      0.044400
    123 H71        86.1922   54.4046   36.2651 dc         1 CLA      0.044400
    124 H62        86.6330   55.6800   34.1252 dc         1 CLA      0.015600
    125 H61        85.1143   56.4352   34.2514 dc         1 CLA      0.015600
    126 H52        85.6492   53.4733   33.8901 dc         1 CLA      0.033200
    127 H51        85.2213   54.7003   32.7487 dc         1 CLA      0.033200
    128 H43        83.4682   52.2867   32.8038 dc         1 CLA      0.037000
    129 H42        83.8092   52.0835   34.5493 dc         1 CLA      0.037000
    130 H41        82.1480   52.5698   33.8685 dc         1 CLA      0.037000
    131 H3A        80.8792   59.8175   35.4987 dc         1 CLA      0.041100
    132 H2A        79.5396   57.3698   34.9718 dc         1 CLA      0.083100
    133 H2         82.3865   55.3636   34.9160 da         1 CLA      0.180900
    134 H18        85.2597   61.3531   46.0928 dc         1 CLA     -0.003900
    135 H13        85.0379   59.3793   41.1337 dc         1 CLA      0.019700
    136 H12        80.8696   55.0570   32.6138 dc         1 CLA      0.120400
    137 H11        82.3066   55.5393   31.8733 dc         1 CLA      0.120400
    138 C1         68.2103   61.6013   49.4315 Z1         2 LUT      0.509236
    139 C2         66.7836   61.3774   49.8704 Z2         2 LUT     -0.434695
    140 C3         65.9538   62.5152   50.4192 Z3         2 LUT      0.437453
    141 O3         66.4214   62.9199   51.7581 S1         2 LUT     -0.547129
    142 C4         66.1909   63.7246   49.5069 Z4         2 LUT     -0.468603
    143 C5         67.0659   63.5160   48.2461 Z5         2 LUT      0.279246
    144 C6         68.0810   62.5998   48.3150 Z6         2 LUT     -0.305473
    145 C7         68.7454   62.2790   46.9627 Z7         2 LUT      0.069402
    146 C8         69.8288   62.7998   46.2960 Z8         2 LUT     -0.191631
    147 C9         70.3596   62.3845   44.9789 Z9         2 LUT      0.196698
    148 C10        71.4111   63.1945   44.3988 Y1         2 LUT     -0.208611
    149 C11        72.1023   62.9955   43.1829 Y2         2 LUT      0.030784
    150 C12        73.1369   63.8290   42.7986 Y3         2 LUT     -0.220316
    151 C13        73.9602   63.6610   41.6431 Y4         2 LUT      0.215937
    152 C14        75.1252   64.4586   41.5397 Y5         2 LUT     -0.185793
    153 C15        76.1995   64.5220   40.5820 Y6         2 LUT     -0.057835
    154 C16        68.7817   60.2557   49.0624 Y7         2 LUT     -0.405615
    155 C17        69.1455   62.1132   50.4585 Y7         2 LUT     -0.405615
    156 C18        66.8037   64.5143   47.1469 Y9         2 LUT     -0.369639
    157 C19        69.9017   61.0557   44.3781 W1         2 LUT     -0.333362
    158 C20        73.3316   63.0028   40.4515 W2         2 LUT     -0.323439
    159 C21        87.4882   66.0556   34.1379 Z1         2 LUT      0.406104
    160 C22        88.1383   65.5857   32.8429 Z2         2 LUT     -0.404965
    161 C23        88.4340   66.6190   31.7677 Z3         2 LUT      0.391255
    162 O23        88.8704   65.8228   30.6628 S1         2 LUT     -0.528210
    163 C24        87.1433   67.4228   31.5546 W6         2 LUT     -0.258361
    164 C25        86.0943   67.4264   32.4094 Z5         2 LUT      0.133546
    165 C26        86.0879   66.6458   33.7242 W8         2 LUT     -0.147008
    166 C27        85.2619   67.2466   34.8898 Z7         2 LUT      0.023843
    167 C28        84.2728   66.5523   35.4614 Z8         2 LUT     -0.216987
    168 C29        83.5429   66.8508   36.7186 Z9         2 LUT      0.206524
    169 C30        82.5328   66.0085   37.1587 Y1         2 LUT     -0.215556
    170 C31        81.7483   66.1893   38.3701 Y2         2 LUT      0.025142
    171 C32        80.6642   65.4855   38.8472 Y3         2 LUT     -0.212209
    172 C33        79.7431   65.7275   39.9302 Y4         2 LUT      0.240937
    173 C34        78.4852   65.1031   39.7989 Y5         2 LUT     -0.218862
    174 C35        77.4333   65.1145   40.7418 Y6         2 LUT     -0.023547
    175 C36        88.3970   67.2176   34.7987 Y7         2 LUT     -0.393485
    176 C37        87.3905   64.9882   35.2586 Y7         2 LUT     -0.393485
    177 C38        84.8224   68.2100   32.1572 Y9         2 LUT     -0.387526
    178 C39        84.1448   68.0453   37.4685 W1         2 LUT     -0.322618
    179 C40        80.2722   66.4036   41.2408 W2         2 LUT     -0.358472
    180 H403       79.9388   67.4200   41.3333 R7         2 LUT      0.097720
    181 H402       79.9157   65.8802   42.1025 R7         2 LUT      0.097720
    182 H401       81.3320   66.3907   41.4341 R7         2 LUT      0.097720
    183 H393       84.0968   69.0193   36.8884 R4         2 LUT      0.082505
    184 H392       83.7599   68.1528   38.4867 R4         2 LUT      0.082505
    185 H391       85.2252   67.8682   37.5982 R4         2 LUT      0.082505
    186 H383       84.7275   68.6561   31.1809 R1         2 LUT      0.104030
    187 H382       83.9568   67.5411   32.2834 R1         2 LUT      0.104030
    188 H381       84.6482   69.0832   32.8814 R1         2 LUT      0.104030
    189 H373       86.8266   64.1458   34.7914 T4         2 LUT      0.089537
    190 H372       88.3912   64.7928   35.6116 T4         2 LUT      0.089537
    191 H371       86.8327   65.3831   36.0423 T4         2 LUT      0.089537
    192 H363       88.3117   68.2314   34.3109 T4         2 LUT      0.089537
    193 H362       88.1676   67.3780   35.8612 T4         2 LUT      0.089537
    194 H361       89.4662   67.0286   34.6765 T4         2 LUT      0.089537
    195 H222       89.1320   65.1489   33.1120 U2         2 LUT      0.127376
    196 H221       87.6405   64.7592   32.4410 U2         2 LUT      0.127376
    197 H203       73.3388   61.8969   40.4128 R7         2 LUT      0.087068
    198 H202       72.3692   63.4155   40.2999 R7         2 LUT      0.087068
    199 H201       73.9279   63.3468   39.5708 R7         2 LUT      0.087068
    200 H193       70.1962   60.8156   43.2986 R4         2 LUT      0.089716
    201 H192       70.2047   60.1638   44.8994 R4         2 LUT      0.089716
    202 H191       68.8217   61.1440   44.3776 R4         2 LUT      0.089716
    203 H183       65.9785   65.1964   47.4446 R1         2 LUT      0.094572
    204 H182       67.6891   65.1323   47.0257 R1         2 LUT      0.094572
    205 H181       66.5949   63.9494   46.2034 R1         2 LUT      0.094572
    206 H173       69.1693   61.3634   51.3039 T4         2 LUT      0.093752
    207 H172       70.1737   62.1605   50.0077 T4         2 LUT      0.093752
    208 H171       68.8370   63.0306   50.9276 T4         2 LUT      0.093752
    209 H163       68.1196   59.6519   48.4459 T4         2 LUT      0.093752
    210 H162       69.6000   60.2987   48.3506 T4         2 LUT      0.093752
    211 H161       68.9614   59.7179   49.9976 T4         2 LUT      0.093752
    212 HO3        66.3422   62.1816   52.3680 Q1         2 LUT      0.300121
    213 H8         70.3332   63.4375   46.9543 U7         2 LUT      0.080784
    214 H7         68.1745   61.4717   46.4881 U6         2 LUT      0.042190
    215 H42        65.1956   63.9085   49.0893 U5         2 LUT      0.145166
    216 H41        66.3617   64.6557   50.0688 U5         2 LUT      0.145166
    217 H35        77.6729   65.6327   41.6662 T3         2 LUT      0.077919
    218 H34        78.3551   64.4486   38.9011 T2         2 LUT      0.073626
    219 H32        80.3115   64.6944   38.1089 T1         2 LUT      0.092510
    220 H31        81.9330   67.0598   39.0035 U9         2 LUT      0.070048
    221 H30        82.2396   65.1535   36.4363 U8         2 LUT      0.085442
    222 H3         64.9089   62.2183   50.3935 U3         2 LUT     -0.031596
    223 H28        83.9289   65.6506   34.8731 U7         2 LUT      0.084728
    224 H27        85.7001   68.1369   35.4290 U6         2 LUT      0.087291
    225 H26        85.4662   65.8234   33.2211 Q6         2 LUT      0.075325
    226 H24        87.1116   68.0496   30.6823 Q5         2 LUT      0.094482
    227 H23        89.0948   67.3847   32.1978 U3         2 LUT     -0.024869
    228 H22        66.1651   60.9773   49.1307 U2         2 LUT      0.127376
    229 H21        66.7002   60.5887   50.6221 U2         2 LUT      0.127376
    230 H15        76.0405   63.9080   39.7330 T3         2 LUT      0.093200
    231 H14        75.1904   65.1913   42.3304 T2         2 LUT      0.068865
    232 H12        73.4295   64.5960   43.5709 T1         2 LUT      0.095507
    233 H11        71.9268   62.1952   42.4651 U9         2 LUT      0.068930
    234 H10        71.6202   64.1685   44.8355 U8         2 LUT      0.083911
    235 H1         88.7325   66.2544   29.7543 Q1         2 LUT      0.297311
@<TRIPOS>BOND
    1     6     1 1
    2     7     2 1
    3     8     3 1
    4     9     4 1
    5    11     4 1
    6    12     6 1
    7    13     9 1
    8    16     9 1
    9    25     5 1
   10    25    16 1
   11    26    10 1
   12    26    17 1
   13    27    18 1
   14    28    14 1
   15    28    19 1
   16    29    12 1
   17    30    13 1
   18    31    24 1
   19    32     1 1
   20    32    25 1
   21    33    21 1
   22    33    26 1
   23    34    22 1
   24    34    27 1
   25    35    23 1
   26    35    28 1
   27    36    12 1
   28    36    24 1
   29    37    13 1
   30    37    15 1
   31    38    31 1
   32    39    20 1
   33    39    32 1
   34    40     2 1
   35    40    33 1
   36    41     3 1
   37    41    34 1
   38    42     4 1
   39    42    35 1
   40    43    38 1
   41    44     5 1
   42    44    17 1
   43    44    39 1
   44    45    10 1
   45    45    18 1
   46    45    40 1
   47    46    19 1
   48    46    41 1
   49    47    14 1
   50    47    16 1
   51    47    42 1
   52    48    38 1
   53    49    48 1
   54    50    49 1
   55    51    50 1
   56    52    51 1
   57    53    51 1
   58    54    53 1
   59    55    54 1
   60    56    55 1
   61    57    56 1
   62    58    56 1
   63    59    58 1
   64    60    59 1
   65    61    60 1
   66    62    61 1
   67    63    61 1
   68    64    27 1
   69    64    46 1
   70    65     5 1
   71    65    10 1
   72    65    64 1
   73    65    14 1
   74    66    23 1
   75    67    23 1
   76    68    23 1
   77    69    22 1
   78    70    22 1
   79    71    22 1
   80    72    21 1
   81    73    21 1
   82    74    21 1
   83    75    20 1
   84    76    20 1
   85    77    20 1
   86    78    15 1
   87    79    15 1
   88    80    15 1
   89    81     8 1
   90    82     8 1
   91    83     8 1
   92    84     7 1
   93    85     7 1
   94    86     6 1
   95    87     6 1
   96    88     3 1
   97    89     3 1
   98    90     1 1
   99    91     1 1
  100    92    63 1
  101    93    63 1
  102    94    63 1
  103    95    62 1
  104    96    62 1
  105    97    62 1
  106    98    60 1
  107    99    60 1
  108   100    59 1
  109   101    59 1
  110   102    58 1
  111   103    58 1
  112   104    57 1
  113   105    57 1
  114   106    57 1
  115   107    55 1
  116   108    55 1
  117   109    54 1
  118   110    54 1
  119   111    53 1
  120   112    53 1
  121   113    19 1
  122   114    18 1
  123   115    17 1
  124   116     9 1
  125   117     2 1
  126   118    52 1
  127   119    52 1
  128   120    52 1
  129   121    51 1
  130   122    50 1
  131   123    50 1
  132   124    49 1
  133   125    49 1
  134   126    48 1
  135   127    48 1
  136   128    43 1
  137   129    43 1
  138   130    43 1
  139   131    39 1
  140   132    32 1
  141   133    31 1
  142   134    61 1
  143   135    56 1
  144   136    24 1
  145   137    24 1
  146   139   138 1
  147   140   139 1
  148   141   140 1
  149   142   140 1
  150   143   142 1
  151   144   138 1
  152   144   143 1
  153   145   144 1
  154   146   145 1
  155   147   146 1
  156   148   147 1
  157   149   148 1
  158   150   149 1
  159   151   150 1
  160   152   151 1
  161   153   152 1
  162   154   138 1
  163   155   138 1
  164   156   143 1
  165   157   147 1
  166   158   151 1
  167   160   159 1
  168   161   160 1
  169   162   161 1
  170   163   161 1
  171   164   163 1
  172   165   159 1
  173   165   164 1
  174   166   165 1
  175   167   166 1
  176   168   167 1
  177   169   168 1
  178   170   169 1
  179   171   170 1
  180   172   171 1
  181   173   172 1
  182   174   153 1
  183   174   173 1
  184   175   159 1
  185   176   159 1
  186   177   164 1
  187   178   168 1
  188   179   172 1
  189   180   179 1
  190   181   179 1
  191   182   179 1
  192   183   178 1
  193   184   178 1
  194   185   178 1
  195   186   177 1
  196   187   177 1
  197   188   177 1
  198   189   176 1
  199   190   176 1
  200   191   176 1
  201   192   175 1
  202   193   175 1
  203   194   175 1
  204   195   160 1
  205   196   160 1
  206   197   158 1
  207   198   158 1
  208   199   158 1
  209   200   157 1
  210   201   157 1
  211   202   157 1
  212   203   156 1
  213   204   156 1
  214   205   156 1
  215   206   155 1
  216   207   155 1
  217   208   155 1
  218   209   154 1
  219   210   154 1
  220   211   154 1
  221   212   141 1
  222   213   146 1
  223   214   145 1
  224   215   142 1
  225   216   142 1
  226   217   174 1
  227   218   173 1
  228   219   171 1
  229   220   170 1
  230   221   169 1
  231   222   140 1
  232   223   167 1
  233   224   166 1
  234   225   165 1
  235   226   163 1
  236   227   161 1
  237   228   139 1
  238   229   139 1
  239   230   153 1
  240   231   152 1
  241   232   150 1
  242   233   149 1
  243   234   148 1
  244   235   162 1
  245   65    153 1
  246   65    174 1
@<TRIPOS>SUBSTRUCTURE
      1 CLA               1 ****               0 ****  **** 
      2 LUT             138 ****               0 ****  **** 
