@<TRIPOS>MOLECULE
Cpptraj generated mol2 file.
  235   246     2     0     0
SMALL
USER_CHARGES


@<TRIPOS>ATOM
      1 CAA        78.0334   58.2480   33.9554 a2         1 CLA     -0.055900
      2 CAB        78.2160   60.9355   43.2392 c8         1 CLA     -0.148500
      3 CAC        71.1439   57.2726   42.5871 a2         1 CLA     -0.012600
      4 CAD        73.8188   55.2518   35.1760 ck         1 CLA      0.398800
      5 NA         77.0332   58.0825   37.4518 ns         1 CLA     -0.225500
      6 CBA        79.3009   58.3043   33.0948 a2         1 CLA     -0.135000
      7 CBB        78.7611   62.1330   43.4944 c0         1 CLA     -0.395200
      8 CBC        71.1364   55.7547   42.8245 a3         1 CLA     -0.037700
      9 CBD        75.2302   55.9166   34.8298 a1         1 CLA     -0.053900
     10 NB         76.9955   59.3236   40.1544 nm         1 CLA     -0.295700
     11 OBD        73.1665   54.5339   34.4065 o2         1 CLA     -0.494600
     12 CGA        79.7626   56.9948   32.4521 c4         1 CLA      0.827000
     13 CGD        76.1975   54.7941   34.3684 c4         1 CLA      0.655300
     14 ND         74.2447   57.2406   38.0669 nm         1 CLA     -0.291600
     15 CED        77.0804   52.5935   34.5569 a3         1 CLA      0.005400
     16 CHA        75.7278   56.6449   36.0880 cs         1 CLA     -0.123800
     17 CHB        78.7947   59.3340   38.5679 aa         1 CLA     -0.291900
     18 CHC        75.6785   59.5695   42.1961 aa         1 CLA     -0.090400
     19 CHD        72.4384   56.8333   39.7512 aa         1 CLA     -0.052000
     20 CMA        80.4081   57.6026   36.6101 a3         1 CLA     -0.230700
     21 CMB        80.2349   60.9691   40.8204 a3         1 CLA     -0.180800
     22 CMC        73.1840   59.3411   44.1036 a3         1 CLA     -0.134000
     23 CMD        71.1084   55.0363   37.5127 a3         1 CLA     -0.141100
     24 C1         80.6049   54.7212   33.2558 a2         1 CLA      0.023000
     25 C1A        76.8561   57.4161   36.2927 ac         1 CLA     -0.015100
     26 C1B        78.2281   59.6640   39.7097 cr         1 CLA      0.054700
     27 C1C        74.4956   58.8484   41.8405 cn         1 CLA     -0.005600
     28 C1D        72.9907   56.7176   38.4608 ap         1 CLA     -0.047300
     29 O1A        79.7147   56.7142   31.2561 o2         1 CLA     -0.610800
     30 O1D        76.9528   54.9520   33.4328 o2         1 CLA     -0.558200
     31 C2         81.1408   54.2418   34.5537 c8         1 CLA     -0.325100
     32 C2A        78.1286   57.5565   35.2999 a1         1 CLA      0.098600
     33 C2B        78.8707   60.3670   40.7845 cb         1 CLA      0.088500
     34 C2C        73.3994   58.6039   42.7488 cb         1 CLA      0.053700
     35 C2D        72.3955   55.7981   37.4202 cb         1 CLA      0.058900
     36 O2A        80.2991   56.1218   33.4466 o1         1 CLA     -0.437200
     37 O2D        76.1551   53.5325   35.1172 o1         1 CLA     -0.357600
     38 C3         82.0550   53.2451   34.6764 c5         1 CLA      0.031200
     39 C3A        79.1062   58.3267   36.2550 a1         1 CLA      0.166800
     40 C3B        78.0294   60.3632   41.8891 cb         1 CLA      0.035000
     41 C3C        72.5089   57.7419   42.0880 cb         1 CLA     -0.089900
     42 C3D        73.4441   55.8248   36.4619 cb         1 CLA     -0.035900
     43 C4         81.6905   51.7897   34.7608 a3         1 CLA     -0.053300
     44 C4A        78.2394   58.6547   37.4665 ac         1 CLA      0.001800
     45 C4B        76.8242   59.7746   41.3669 cn         1 CLA     -0.020900
     46 C4C        73.0660   57.5901   40.7895 cr         1 CLA     -0.044400
     47 C4D        74.5966   56.5919   36.9498 c6         1 CLA     -0.046000
     48 C5         83.5749   53.5654   34.4395 a2         1 CLA     -0.070400
     49 C6         84.0567   54.9540   34.8001 a2         1 CLA      0.043900
     50 C7         84.1765   55.1452   36.3629 a2         1 CLA     -0.150000
     51 C8         84.4502   56.6146   36.7656 a1         1 CLA      0.064200
     52 C9         85.6460   57.1452   36.0691 a3         1 CLA     -0.259300
     53 C10        84.5112   56.7363   38.3033 a2         1 CLA     -0.071900
     54 C11        83.1949   56.5089   39.0104 a2         1 CLA      0.014500
     55 C12        83.3051   56.8705   40.5398 a2         1 CLA     -0.112100
     56 C13        82.0957   56.4870   41.4047 a1         1 CLA      0.089200
     57 C14        80.8425   57.3589   41.1105 a3         1 CLA     -0.239100
     58 C15        82.4350   56.5294   42.9349 a2         1 CLA     -0.102200
     59 C16        82.3558   57.8711   43.5911 a2         1 CLA      0.023900
     60 C17        82.8238   57.8337   45.0474 a2         1 CLA     -0.105700
     61 C18        82.7385   59.2442   45.6725 a1         1 CLA      0.206800
     62 C19        81.3853   60.0579   45.4787 a3         1 CLA     -0.280100
     63 C20        82.9924   59.2569   47.1938 a3         1 CLA     -0.280100
     64 NC         74.2589   58.2324   40.6739 nx         1 CLA     -0.309200
     65 MG         75.6282   58.3925   39.0392 mg         1 CLA      0.895000
     66 HMD3       70.3075   55.7323   37.4766 dc         1 CLA      0.064300
     67 HMD2       70.9536   54.3399   36.6804 dc         1 CLA      0.064300
     68 HMD1       71.0041   54.5625   38.4573 dc         1 CLA      0.064300
     69 HMC3       73.7382   60.2658   44.2198 dc         1 CLA      0.052100
     70 HMC2       72.0953   59.5471   44.2223 dc         1 CLA      0.052100
     71 HMC1       73.4924   58.6314   44.9690 dc         1 CLA      0.052100
     72 HMB3       80.2878   61.9746   40.6238 dc         1 CLA      0.063600
     73 HMB2       80.6569   60.7590   41.7652 dc         1 CLA      0.063600
     74 HMB1       80.7531   60.4564   39.9864 dc         1 CLA      0.063600
     75 HMA3       81.1538   58.3479   36.9187 dc         1 CLA      0.058300
     76 HMA2       80.3458   57.0535   37.5233 dc         1 CLA      0.058300
     77 HMA1       80.7752   57.1141   35.7542 dc         1 CLA      0.058300
     78 HED3       76.6723   52.3702   33.5472 dc         1 CLA      0.079300
     79 HED2       78.0704   52.9447   34.5384 dc         1 CLA      0.079300
     80 HED1       77.0054   51.8149   35.2766 dc         1 CLA      0.079300
     81 HBC3       71.5492   55.1433   41.9685 dc         1 CLA      0.016300
     82 HBC2       71.7600   55.5937   43.6949 dc         1 CLA      0.016300
     83 HBC1       70.0847   55.4095   43.0408 dc         1 CLA      0.016300
     84 HBB2       78.7959   62.5133   44.5092 da         1 CLA      0.183000
     85 HBB1       79.2201   62.7079   42.7248 da         1 CLA      0.183000
     86 HBA2       79.0501   59.0448   32.3200 dc         1 CLA      0.029400
     87 HBA1       80.0985   58.6741   33.5887 dc         1 CLA      0.029400
     88 HAC2       70.7993   57.7322   43.4752 dc         1 CLA      0.029300
     89 HAC1       70.3913   57.5396   41.8263 dc         1 CLA      0.029300
     90 HAA2       77.3177   57.6686   33.4263 dc         1 CLA      0.028700
     91 HAA1       77.5495   59.2429   34.1638 dc         1 CLA      0.028700
     92 H203       83.8710   58.6729   47.2885 dc         1 CLA      0.065600
     93 H202       83.3100   60.2214   47.6255 dc         1 CLA      0.065600
     94 H201       82.1269   58.7441   47.7081 dc         1 CLA      0.065600
     95 H193       81.3981   61.0202   45.9584 dc         1 CLA      0.065600
     96 H192       81.0760   60.2347   44.4443 dc         1 CLA      0.065600
     97 H191       80.5748   59.4663   45.9294 dc         1 CLA      0.065600
     98 H172       82.2479   57.1420   45.6801 dc         1 CLA      0.027600
     99 H171       83.8975   57.4991   45.1184 dc         1 CLA      0.027600
    100 H162       83.0677   58.5958   43.1395 dc         1 CLA      0.002900
    101 H161       81.3052   58.1364   43.4992 dc         1 CLA      0.002900
    102 H152       81.6809   55.8811   43.4367 dc         1 CLA      0.029100
    103 H151       83.4357   56.0655   43.1551 dc         1 CLA      0.029100
    104 H143       81.1559   58.4061   41.1572 dc         1 CLA      0.063600
    105 H142       80.5201   57.1509   40.1454 dc         1 CLA      0.063600
    106 H141       80.0106   57.1744   41.8312 dc         1 CLA      0.063600
    107 H122       84.0597   56.1829   40.9099 dc         1 CLA      0.032500
    108 H121       83.4979   57.9787   40.6132 dc         1 CLA      0.032500
    109 H112       82.4072   57.0530   38.6086 dc         1 CLA      0.006600
    110 H111       82.9048   55.4673   38.9961 dc         1 CLA      0.006600
    111 H102       85.1616   55.9972   38.7219 dc         1 CLA      0.024100
    112 H101       84.8478   57.7304   38.5380 dc         1 CLA      0.024100
    113 HHD        71.4589   56.3525   39.9134 da         1 CLA      0.174300
    114 HHC        75.6586   60.0885   43.0880 da         1 CLA      0.136800
    115 HHB        79.8838   59.6584   38.4117 da         1 CLA      0.138300
    116 HBD        75.0671   56.5929   33.9898 dc         1 CLA      0.107700
    117 HAB        77.6920   60.4891   44.0151 da         1 CLA      0.155200
    118 H93        85.5939   57.1016   35.0077 dc         1 CLA      0.069500
    119 H92        85.6355   58.1435   36.3640 dc         1 CLA      0.069500
    120 H91        86.5942   56.6055   36.3147 dc         1 CLA      0.069500
    121 H8         83.5522   57.1367   36.4521 dc         1 CLA      0.029300
    122 H72        83.2244   54.8076   36.8030 dc         1 CLA      0.044400
    123 H71        84.9950   54.4619   36.6273 dc         1 CLA      0.044400
    124 H62        85.1108   55.0772   34.4593 dc         1 CLA      0.015600
    125 H61        83.4181   55.7227   34.4411 dc         1 CLA      0.015600
    126 H52        84.0982   52.7663   34.9477 dc         1 CLA      0.033200
    127 H51        83.6496   53.5318   33.3282 dc         1 CLA      0.033200
    128 H43        80.6584   51.5219   34.6484 dc         1 CLA      0.037000
    129 H42        82.2719   51.1764   34.0561 dc         1 CLA      0.037000
    130 H41        81.9857   51.3619   35.7113 dc         1 CLA      0.037000
    131 H3A        79.3827   59.2675   35.8451 dc         1 CLA      0.041100
    132 H2A        78.3903   56.5087   35.1722 dc         1 CLA      0.083100
    133 H2         80.8581   54.8127   35.4585 da         1 CLA      0.180900
    134 H18        83.5359   59.8424   45.2837 dc         1 CLA     -0.003900
    135 H13        81.8103   55.4402   41.2186 dc         1 CLA      0.019700
    136 H12        79.6599   54.2836   32.9114 dc         1 CLA      0.120400
    137 H11        81.3424   54.6159   32.4015 dc         1 CLA      0.120400
    138 C1         68.1977   60.7791   49.9824 Z1         2 LUT      0.509236
    139 C2         67.9919   61.6255   51.1947 Z2         2 LUT     -0.434695
    140 C3         66.5332   62.0157   51.3301 Z3         2 LUT      0.437453
    141 O3         66.3087   62.8036   52.5537 S1         2 LUT     -0.547129
    142 C4         66.0476   62.6779   50.0418 Z4         2 LUT     -0.468603
    143 C5         66.6539   62.2851   48.7028 Z5         2 LUT      0.279246
    144 C6         67.5657   61.2525   48.6460 Z6         2 LUT     -0.305473
    145 C7         68.2198   60.8331   47.3633 Z7         2 LUT      0.069402
    146 C8         69.0054   61.7458   46.6860 Z8         2 LUT     -0.191631
    147 C9         69.7049   61.5527   45.4293 Z9         2 LUT      0.196698
    148 C10        70.6270   62.4682   44.9150 Y1         2 LUT     -0.208611
    149 C11        71.4631   62.4160   43.7393 Y2         2 LUT      0.030784
    150 C12        72.5717   63.2302   43.5570 Y3         2 LUT     -0.220316
    151 C13        73.5038   63.0976   42.4569 Y4         2 LUT      0.215937
    152 C14        74.7357   63.6355   42.5081 Y5         2 LUT     -0.185793
    153 C15        75.8496   63.5373   41.5831 Y6         2 LUT     -0.057835
    154 C16        67.6194   59.3158   50.2784 Y7         2 LUT     -0.405615
    155 C17        69.7493   60.3662   49.7898 Y7         2 LUT     -0.405615
    156 C18        65.9816   63.1058   47.5809 Y9         2 LUT     -0.369639
    157 C19        69.2668   60.3948   44.6164 W1         2 LUT     -0.333362
    158 C20        72.9793   62.3573   41.1952 W2         2 LUT     -0.323439
    159 C21        87.1069   64.6366   35.2724 Z1         2 LUT      0.406104
    160 C22        87.9238   64.3447   33.9658 Z2         2 LUT     -0.404965
    161 C23        88.0743   65.5286   33.0411 Z3         2 LUT      0.391255
    162 O23        88.5939   65.0315   31.7490 S1         2 LUT     -0.528210
    163 C24        86.7976   66.3832   33.0444 W6         2 LUT     -0.258361
    164 C25        85.7659   66.2651   33.8289 Z5         2 LUT      0.133546
    165 C26        85.6959   65.1991   34.9003 W8         2 LUT     -0.147008
    166 C27        85.0219   65.6758   36.1605 Z7         2 LUT      0.023843
    167 C28        83.9524   65.1541   36.7829 Z8         2 LUT     -0.216987
    168 C29        83.5040   65.4491   38.1710 Z9         2 LUT      0.206524
    169 C30        82.1960   65.0633   38.4894 Y1         2 LUT     -0.215556
    170 C31        81.4953   65.3376   39.6636 Y2         2 LUT      0.025142
    171 C32        80.2043   64.8272   39.9147 Y3         2 LUT     -0.212209
    172 C33        79.3175   64.9432   40.9918 Y4         2 LUT      0.240937
    173 C34        78.0495   64.3473   40.8941 Y5         2 LUT     -0.218862
    174 C35        76.9892   64.2500   41.7937 Y6         2 LUT     -0.023547
    175 C36        87.9809   65.5004   36.1856 Y7         2 LUT     -0.393485
    176 C37        86.9987   63.2498   36.0061 Y7         2 LUT     -0.393485
    177 C38        84.5934   67.1240   33.6167 Y9         2 LUT     -0.387526
    178 C39        84.2287   66.3508   39.2089 W1         2 LUT     -0.322618
    179 C40        79.9034   65.6875   42.1620 W2         2 LUT     -0.358472
    180 H403       80.2951   66.6870   41.9340 R7         2 LUT      0.097720
    181 H402       79.1639   65.8102   42.9143 R7         2 LUT      0.097720
    182 H401       80.7608   65.1419   42.5610 R7         2 LUT      0.097720
    183 H393       85.2400   66.6726   38.9132 R4         2 LUT      0.082505
    184 H392       83.5843   67.2440   39.5792 R4         2 LUT      0.082505
    185 H391       84.3844   65.7786   40.1376 R4         2 LUT      0.082505
    186 H383       83.7412   66.5052   33.8233 R1         2 LUT      0.104030
    187 H382       84.6447   67.9838   34.1863 R1         2 LUT      0.104030
    188 H381       84.5931   67.5246   32.5970 R1         2 LUT      0.104030
    189 H373       88.0267   62.7845   36.0595 T4         2 LUT      0.089537
    190 H372       86.4055   63.3295   36.9465 T4         2 LUT      0.089537
    191 H371       86.3856   62.7026   35.3089 T4         2 LUT      0.089537
    192 H363       89.0019   65.3494   36.0557 T4         2 LUT      0.089537
    193 H362       87.8604   66.5527   35.8592 T4         2 LUT      0.089537
    194 H361       87.7721   65.3591   37.2256 T4         2 LUT      0.089537
    195 H222       88.9457   63.8483   34.1905 U2         2 LUT      0.127376
    196 H221       87.4483   63.4731   33.4266 U2         2 LUT      0.127376
    197 H203       71.8821   62.5222   41.2352 R7         2 LUT      0.087068
    198 H202       73.4489   62.6368   40.2919 R7         2 LUT      0.087068
    199 H201       73.2182   61.3006   41.3399 R7         2 LUT      0.087068
    200 H193       68.2047   60.3746   44.3391 R4         2 LUT      0.089716
    201 H192       69.7481   60.4907   43.6536 R4         2 LUT      0.089716
    202 H191       69.6287   59.4879   45.1513 R4         2 LUT      0.089716
    203 H183       64.9338   63.2192   47.7212 R1         2 LUT      0.094572
    204 H182       66.4038   64.1084   47.4482 R1         2 LUT      0.094572
    205 H181       66.1642   62.6150   46.6446 R1         2 LUT      0.094572
    206 H173       70.0394   59.5350   49.2023 T4         2 LUT      0.093752
    207 H172       70.3285   61.2190   49.6101 T4         2 LUT      0.093752
    208 H171       70.1395   60.0785   50.7646 T4         2 LUT      0.093752
    209 H163       67.5463   59.1015   51.3347 T4         2 LUT      0.093752
    210 H162       66.6062   59.2035   49.9929 T4         2 LUT      0.093752
    211 H161       68.1407   58.4917   49.7806 T4         2 LUT      0.093752
    212 HO3        66.0094   62.2732   53.3312 Q1         2 LUT      0.300121
    213 H8         69.0698   62.6864   47.1795 U7         2 LUT      0.080784
    214 H7         68.1761   59.8013   47.0393 U6         2 LUT      0.042190
    215 H42        65.0429   62.2554   49.8827 U5         2 LUT      0.145166
    216 H41        66.0060   63.7742   50.1617 U5         2 LUT      0.145166
    217 H35        77.1673   64.7715   42.7577 T3         2 LUT      0.077919
    218 H34        77.9083   63.9122   39.8686 T2         2 LUT      0.073626
    219 H32        79.8005   64.3439   39.0368 T1         2 LUT      0.092510
    220 H31        82.0117   65.8449   40.4755 U9         2 LUT      0.070048
    221 H30        81.5509   64.5334   37.7215 U8         2 LUT      0.085442
    222 H3         66.0250   61.0283   51.5095 U3         2 LUT     -0.031596
    223 H28        83.3283   64.4948   36.2671 U7         2 LUT      0.084728
    224 H27        85.4889   66.5755   36.6126 U6         2 LUT      0.087291
    225 H26        85.0040   64.5201   34.3631 Q6         2 LUT      0.075325
    226 H24        86.6650   67.1600   32.2389 Q5         2 LUT      0.094482
    227 H23        88.8559   66.1666   33.4573 U3         2 LUT     -0.024869
    228 H22        68.3019   61.1325   52.0952 U2         2 LUT      0.127376
    229 H21        68.5671   62.5115   51.0601 U2         2 LUT      0.127376
    230 H15        75.7291   63.0719   40.5669 T3         2 LUT      0.093200
    231 H14        74.9277   64.2820   43.3736 T2         2 LUT      0.068865
    232 H12        72.8602   63.8749   44.3525 T1         2 LUT      0.095507
    233 H11        71.3189   61.6176   43.0057 U9         2 LUT      0.068930
    234 H10        70.7811   63.2722   45.5670 U8         2 LUT      0.083911
    235 H1         87.8873   64.7401   31.1577 Q1         2 LUT      0.297311
@<TRIPOS>BOND
    1     6     1 1
    2     7     2 1
    3     8     3 1
    4     9     4 1
    5    11     4 1
    6    12     6 1
    7    13     9 1
    8    16     9 1
    9    25     5 1
   10    25    16 1
   11    26    10 1
   12    26    17 1
   13    27    18 1
   14    28    14 1
   15    28    19 1
   16    29    12 1
   17    30    13 1
   18    31    24 1
   19    32     1 1
   20    32    25 1
   21    33    21 1
   22    33    26 1
   23    34    22 1
   24    34    27 1
   25    35    23 1
   26    35    28 1
   27    36    12 1
   28    36    24 1
   29    37    13 1
   30    37    15 1
   31    38    31 1
   32    39    20 1
   33    39    32 1
   34    40     2 1
   35    40    33 1
   36    41     3 1
   37    41    34 1
   38    42     4 1
   39    42    35 1
   40    43    38 1
   41    44     5 1
   42    44    17 1
   43    44    39 1
   44    45    10 1
   45    45    18 1
   46    45    40 1
   47    46    19 1
   48    46    41 1
   49    47    14 1
   50    47    16 1
   51    47    42 1
   52    48    38 1
   53    49    48 1
   54    50    49 1
   55    51    50 1
   56    52    51 1
   57    53    51 1
   58    54    53 1
   59    55    54 1
   60    56    55 1
   61    57    56 1
   62    58    56 1
   63    59    58 1
   64    60    59 1
   65    61    60 1
   66    62    61 1
   67    63    61 1
   68    64    27 1
   69    64    46 1
   70    65     5 1
   71    65    10 1
   72    65    64 1
   73    65    14 1
   74    66    23 1
   75    67    23 1
   76    68    23 1
   77    69    22 1
   78    70    22 1
   79    71    22 1
   80    72    21 1
   81    73    21 1
   82    74    21 1
   83    75    20 1
   84    76    20 1
   85    77    20 1
   86    78    15 1
   87    79    15 1
   88    80    15 1
   89    81     8 1
   90    82     8 1
   91    83     8 1
   92    84     7 1
   93    85     7 1
   94    86     6 1
   95    87     6 1
   96    88     3 1
   97    89     3 1
   98    90     1 1
   99    91     1 1
  100    92    63 1
  101    93    63 1
  102    94    63 1
  103    95    62 1
  104    96    62 1
  105    97    62 1
  106    98    60 1
  107    99    60 1
  108   100    59 1
  109   101    59 1
  110   102    58 1
  111   103    58 1
  112   104    57 1
  113   105    57 1
  114   106    57 1
  115   107    55 1
  116   108    55 1
  117   109    54 1
  118   110    54 1
  119   111    53 1
  120   112    53 1
  121   113    19 1
  122   114    18 1
  123   115    17 1
  124   116     9 1
  125   117     2 1
  126   118    52 1
  127   119    52 1
  128   120    52 1
  129   121    51 1
  130   122    50 1
  131   123    50 1
  132   124    49 1
  133   125    49 1
  134   126    48 1
  135   127    48 1
  136   128    43 1
  137   129    43 1
  138   130    43 1
  139   131    39 1
  140   132    32 1
  141   133    31 1
  142   134    61 1
  143   135    56 1
  144   136    24 1
  145   137    24 1
  146   139   138 1
  147   140   139 1
  148   141   140 1
  149   142   140 1
  150   143   142 1
  151   144   138 1
  152   144   143 1
  153   145   144 1
  154   146   145 1
  155   147   146 1
  156   148   147 1
  157   149   148 1
  158   150   149 1
  159   151   150 1
  160   152   151 1
  161   153   152 1
  162   154   138 1
  163   155   138 1
  164   156   143 1
  165   157   147 1
  166   158   151 1
  167   160   159 1
  168   161   160 1
  169   162   161 1
  170   163   161 1
  171   164   163 1
  172   165   159 1
  173   165   164 1
  174   166   165 1
  175   167   166 1
  176   168   167 1
  177   169   168 1
  178   170   169 1
  179   171   170 1
  180   172   171 1
  181   173   172 1
  182   174   153 1
  183   174   173 1
  184   175   159 1
  185   176   159 1
  186   177   164 1
  187   178   168 1
  188   179   172 1
  189   180   179 1
  190   181   179 1
  191   182   179 1
  192   183   178 1
  193   184   178 1
  194   185   178 1
  195   186   177 1
  196   187   177 1
  197   188   177 1
  198   189   176 1
  199   190   176 1
  200   191   176 1
  201   192   175 1
  202   193   175 1
  203   194   175 1
  204   195   160 1
  205   196   160 1
  206   197   158 1
  207   198   158 1
  208   199   158 1
  209   200   157 1
  210   201   157 1
  211   202   157 1
  212   203   156 1
  213   204   156 1
  214   205   156 1
  215   206   155 1
  216   207   155 1
  217   208   155 1
  218   209   154 1
  219   210   154 1
  220   211   154 1
  221   212   141 1
  222   213   146 1
  223   214   145 1
  224   215   142 1
  225   216   142 1
  226   217   174 1
  227   218   173 1
  228   219   171 1
  229   220   170 1
  230   221   169 1
  231   222   140 1
  232   223   167 1
  233   224   166 1
  234   225   165 1
  235   226   163 1
  236   227   161 1
  237   228   139 1
  238   229   139 1
  239   230   153 1
  240   231   152 1
  241   232   150 1
  242   233   149 1
  243   234   148 1
  244   235   162 1
  245   65    153 1
  246   65    174 1
@<TRIPOS>SUBSTRUCTURE
      1 CLA               1 ****               0 ****  **** 
      2 LUT             138 ****               0 ****  **** 
