@<TRIPOS>MOLECULE
Cpptraj generated mol2 file.
  235   246     2     0     0
SMALL
USER_CHARGES


@<TRIPOS>ATOM
      1 CAA        79.5040   59.2322   33.6992 a2         1 CLA     -0.055900
      2 CAB        79.1755   62.7668   42.7151 c8         1 CLA     -0.148500
      3 CAC        72.3574   58.4408   42.1398 a2         1 CLA     -0.012600
      4 CAD        75.3221   56.2710   34.7516 ck         1 CLA      0.398800
      5 NA         78.3839   59.2367   37.1115 ns         1 CLA     -0.225500
      6 CBA        80.7199   59.1545   32.7466 a2         1 CLA     -0.135000
      7 CBB        80.2326   63.3835   43.2743 c0         1 CLA     -0.395200
      8 CBC        72.5087   57.0740   42.7668 a3         1 CLA     -0.037700
      9 CBD        76.6647   56.9408   34.4351 a1         1 CLA     -0.053900
     10 NB         78.2134   60.7484   39.7268 nm         1 CLA     -0.295700
     11 OBD        74.7606   55.5723   33.9467 o2         1 CLA     -0.494600
     12 CGA        81.2223   57.7603   32.4656 c4         1 CLA      0.827000
     13 CGD        77.7431   55.9655   33.9691 c4         1 CLA      0.655300
     14 ND         75.6245   58.1602   37.7274 nm         1 CLA     -0.291600
     15 CED        78.9974   54.0390   34.6364 a3         1 CLA      0.005400
     16 CHA        77.0477   57.7468   35.7072 cs         1 CLA     -0.123800
     17 CHB        80.1356   60.5820   38.2181 aa         1 CLA     -0.291900
     18 CHC        76.7712   61.0123   41.7097 aa         1 CLA     -0.090400
     19 CHD        73.8234   57.7965   39.4576 aa         1 CLA     -0.052000
     20 CMA        81.7764   58.6381   36.4976 a3         1 CLA     -0.230700
     21 CMB        81.5039   62.5327   40.3163 a3         1 CLA     -0.180800
     22 CMC        74.2200   60.5310   43.6497 a3         1 CLA     -0.134000
     23 CMD        72.6867   55.7910   37.2962 a3         1 CLA     -0.141100
     24 C1         82.4739   55.9198   33.3443 a2         1 CLA      0.023000
     25 C1A        78.2546   58.4633   35.9713 ac         1 CLA     -0.015100
     26 C1B        79.5023   61.0603   39.3837 cr         1 CLA      0.054700
     27 C1C        75.6694   60.1767   41.4650 cn         1 CLA     -0.005600
     28 C1D        74.4768   57.5627   38.1869 ap         1 CLA     -0.047300
     29 O1A        80.9711   57.0239   31.4797 o2         1 CLA     -0.610800
     30 O1D        78.5093   56.1586   33.0242 o2         1 CLA     -0.558200
     31 C2         83.2601   55.5903   34.6938 c8         1 CLA     -0.325100
     32 C2A        79.5827   58.6052   35.1194 a1         1 CLA      0.098600
     33 C2B        80.0586   61.9279   40.3874 cb         1 CLA      0.088500
     34 C2C        74.4906   59.9411   42.3003 cb         1 CLA      0.053700
     35 C2D        73.9487   56.6626   37.1525 cb         1 CLA      0.058900
     36 O2A        81.9179   57.2914   33.5405 o1         1 CLA     -0.437200
     37 O2D        77.8833   54.9369   34.8496 o1         1 CLA     -0.357600
     38 C3         84.4032   54.8149   34.6958 c5         1 CLA      0.031200
     39 C3A        80.5546   59.4674   36.0302 a1         1 CLA      0.166800
     40 C3B        79.0801   62.0877   41.3797 cb         1 CLA      0.035000
     41 C3C        73.6441   59.0096   41.6578 cb         1 CLA     -0.089900
     42 C3D        74.9124   56.7609   36.0739 cb         1 CLA     -0.035900
     43 C4         84.2141   53.3113   34.8937 a3         1 CLA     -0.053300
     44 C4A        79.6199   59.8443   37.1849 ac         1 CLA      0.001800
     45 C4B        77.9377   61.3199   40.9372 cn         1 CLA     -0.020900
     46 C4C        74.3226   58.6826   40.4701 cr         1 CLA     -0.044400
     47 C4D        75.9436   57.6638   36.5733 c6         1 CLA     -0.046000
     48 C5         85.8273   55.4305   34.6150 a2         1 CLA     -0.070400
     49 C6         86.0687   56.6314   35.4687 a2         1 CLA      0.043900
     50 C7         85.8347   56.3931   36.9496 a2         1 CLA     -0.150000
     51 C8         85.7345   57.7098   37.7558 a1         1 CLA      0.064200
     52 C9         87.1392   58.3612   37.7812 a3         1 CLA     -0.259300
     53 C10        85.1263   57.4042   39.1628 a2         1 CLA     -0.071900
     54 C11        85.0985   58.5344   40.1667 a2         1 CLA      0.014500
     55 C12        84.1611   58.3389   41.4058 a2         1 CLA     -0.112100
     56 C13        84.1111   59.5213   42.3654 a1         1 CLA      0.089200
     57 C14        85.5321   59.8094   43.0371 a3         1 CLA     -0.239100
     58 C15        83.0476   59.3046   43.5290 a2         1 CLA     -0.102200
     59 C16        81.6084   58.9801   43.0885 a2         1 CLA      0.023900
     60 C17        80.5953   59.0672   44.2440 a2         1 CLA     -0.105700
     61 C18        79.1047   58.7123   43.8832 a1         1 CLA      0.206800
     62 C19        78.9189   57.1483   43.5482 a3         1 CLA     -0.280100
     63 C20        78.1793   59.1507   45.0175 a3         1 CLA     -0.280100
     64 NC         75.5125   59.4236   40.3635 nx         1 CLA     -0.309200
     65 MG         76.8720   59.5375   38.6363 mg         1 CLA      0.895000
     66 HMD3       72.6505   55.0411   36.5565 dc         1 CLA      0.064300
     67 HMD2       72.5847   55.3126   38.2651 dc         1 CLA      0.064300
     68 HMD1       71.8451   56.4789   37.1823 dc         1 CLA      0.064300
     69 HMC3       74.2054   59.7042   44.3968 dc         1 CLA      0.052100
     70 HMC2       74.9093   61.1910   44.0128 dc         1 CLA      0.052100
     71 HMC1       73.2792   61.0585   43.7183 dc         1 CLA      0.052100
     72 HMB3       81.9954   62.0267   39.5021 dc         1 CLA      0.063600
     73 HMB2       81.3928   63.6229   40.2723 dc         1 CLA      0.063600
     74 HMB1       81.9880   62.2455   41.1857 dc         1 CLA      0.063600
     75 HMA3       82.2735   58.9886   37.3663 dc         1 CLA      0.058300
     76 HMA2       81.5334   57.6014   36.7062 dc         1 CLA      0.058300
     77 HMA1       82.4046   58.8149   35.6036 dc         1 CLA      0.058300
     78 HED3       78.8962   53.6580   33.6789 dc         1 CLA      0.079300
     79 HED2       79.9640   54.5430   34.7664 dc         1 CLA      0.079300
     80 HED1       79.0025   53.1465   35.2692 dc         1 CLA      0.079300
     81 HBC3       73.1102   56.4679   42.0549 dc         1 CLA      0.016300
     82 HBC2       73.0739   57.1076   43.7657 dc         1 CLA      0.016300
     83 HBC1       71.5308   56.5513   42.8001 dc         1 CLA      0.016300
     84 HBB2       80.2670   63.8175   44.3066 da         1 CLA      0.183000
     85 HBB1       81.2522   63.3973   42.8251 da         1 CLA      0.183000
     86 HBA2       80.4558   59.5784   31.8203 dc         1 CLA      0.029400
     87 HBA1       81.4862   59.8359   33.0786 dc         1 CLA      0.029400
     88 HAC2       71.9680   59.0273   42.9521 dc         1 CLA      0.029300
     89 HAC1       71.6418   58.4910   41.3502 dc         1 CLA      0.029300
     90 HAA2       78.7824   58.6930   33.0553 dc         1 CLA      0.028700
     91 HAA1       79.1908   60.2070   33.7625 dc         1 CLA      0.028700
     92 H203       78.4155   60.1457   45.2630 dc         1 CLA      0.065600
     93 H202       77.1453   59.0927   44.5929 dc         1 CLA      0.065600
     94 H201       78.2180   58.5831   45.9076 dc         1 CLA      0.065600
     95 H193       77.8661   56.9036   43.4092 dc         1 CLA      0.065600
     96 H192       79.4496   56.7717   42.6272 dc         1 CLA      0.065600
     97 H191       79.1912   56.4937   44.3455 dc         1 CLA      0.065600
     98 H172       80.8705   58.4510   45.0775 dc         1 CLA      0.027600
     99 H171       80.6146   60.0810   44.5083 dc         1 CLA      0.027600
    100 H162       81.3908   59.5775   42.2259 dc         1 CLA      0.002900
    101 H161       81.5636   57.9061   42.7808 dc         1 CLA      0.002900
    102 H152       83.2978   58.4628   44.2000 dc         1 CLA      0.029100
    103 H151       82.9570   60.1376   44.1424 dc         1 CLA      0.029100
    104 H143       85.5175   60.2930   44.0252 dc         1 CLA      0.063600
    105 H142       86.0884   58.9292   42.9722 dc         1 CLA      0.063600
    106 H141       86.0136   60.5096   42.3517 dc         1 CLA      0.063600
    107 H122       83.1824   58.2041   40.9627 dc         1 CLA      0.032500
    108 H121       84.3031   57.3217   41.8225 dc         1 CLA      0.032500
    109 H112       86.1344   58.8022   40.4568 dc         1 CLA      0.006600
    110 H111       84.6157   59.3539   39.5706 dc         1 CLA      0.006600
    111 H102       84.0846   57.0431   39.0185 dc         1 CLA      0.024100
    112 H101       85.5296   56.5537   39.6363 dc         1 CLA      0.024100
    113 HHD        72.7706   57.4803   39.6515 da         1 CLA      0.174300
    114 HHC        76.5882   61.5387   42.5868 da         1 CLA      0.136800
    115 HHB        81.1711   60.7902   38.1302 da         1 CLA      0.138300
    116 HBD        76.4155   57.6285   33.6276 dc         1 CLA      0.107700
    117 HAB        78.2511   62.6919   43.3739 da         1 CLA      0.155200
    118 H93        87.6187   58.2851   38.7690 dc         1 CLA      0.069500
    119 H92        87.8508   58.1167   37.0278 dc         1 CLA      0.069500
    120 H91        87.0311   59.4417   37.6940 dc         1 CLA      0.069500
    121 H8         85.1561   58.5444   37.3077 dc         1 CLA      0.029300
    122 H72        84.9578   55.8448   37.1094 dc         1 CLA      0.044400
    123 H71        86.6586   55.7460   37.3588 dc         1 CLA      0.044400
    124 H62        86.9689   57.0740   35.2846 dc         1 CLA      0.015600
    125 H61        85.3783   57.4023   35.0830 dc         1 CLA      0.015600
    126 H52        86.5789   54.7235   34.9450 dc         1 CLA      0.033200
    127 H51        85.9651   55.6651   33.5540 dc         1 CLA      0.033200
    128 H43        84.9455   52.8071   34.1819 dc         1 CLA      0.037000
    129 H42        84.4975   53.2428   35.9477 dc         1 CLA      0.037000
    130 H41        83.1880   52.9466   34.8876 dc         1 CLA      0.037000
    131 H3A        80.8849   60.4363   35.6661 dc         1 CLA      0.041100
    132 H2A        80.0229   57.6068   35.0158 dc         1 CLA      0.083100
    133 H2         82.9657   55.9612   35.6674 da         1 CLA      0.180900
    134 H18        78.8132   59.2871   43.0314 dc         1 CLA     -0.003900
    135 H13        83.8383   60.4404   41.8945 dc         1 CLA      0.019700
    136 H12        81.7390   55.1865   33.1550 dc         1 CLA      0.120400
    137 H11        83.2088   55.8953   32.5722 dc         1 CLA      0.120400
    138 C1         68.5293   62.2852   49.9847 Z1         2 LUT      0.509236
    139 C2         67.2369   62.0185   50.6880 Z2         2 LUT     -0.434695
    140 C3         66.3034   63.2348   50.7390 Z3         2 LUT      0.437453
    141 O3         65.9408   63.5880   52.1024 S1         2 LUT     -0.547129
    142 C4         66.7161   64.4207   49.9363 Z4         2 LUT     -0.468603
    143 C5         67.4468   64.1533   48.6779 Z5         2 LUT      0.279246
    144 C6         68.3496   63.1800   48.6933 Z6         2 LUT     -0.305473
    145 C7         68.9396   62.6499   47.3881 Z7         2 LUT      0.069402
    146 C8         70.0943   63.1207   46.7248 Z8         2 LUT     -0.191631
    147 C9         70.7538   62.8067   45.4728 Z9         2 LUT      0.196698
    148 C10        71.8288   63.6097   45.0386 Y1         2 LUT     -0.208611
    149 C11        72.4588   63.5725   43.7632 Y2         2 LUT      0.030784
    150 C12        73.6838   64.0559   43.3961 Y3         2 LUT     -0.220316
    151 C13        74.3322   64.0181   42.1152 Y4         2 LUT      0.215937
    152 C14        75.5787   64.6486   42.0124 Y5         2 LUT     -0.185793
    153 C15        76.5663   64.7311   40.9333 Y6         2 LUT     -0.057835
    154 C16        68.9428   60.8198   49.5789 Y7         2 LUT     -0.405615
    155 C17        69.3417   62.9502   51.0585 Y7         2 LUT     -0.405615
    156 C18        66.8950   65.0278   47.5007 Y9         2 LUT     -0.369639
    157 C19        70.0837   61.7597   44.6180 W1         2 LUT     -0.333362
    158 C20        73.6832   63.6447   40.7858 W2         2 LUT     -0.323439
    159 C21        87.7572   66.4377   34.4080 Z1         2 LUT      0.406104
    160 C22        88.4647   65.6616   33.2753 Z2         2 LUT     -0.404965
    161 C23        88.6197   66.4103   31.9672 Z3         2 LUT      0.391255
    162 O23        88.8360   65.4818   30.8905 S1         2 LUT     -0.528210
    163 C24        87.4544   67.4026   31.7360 W6         2 LUT     -0.258361
    164 C25        86.4320   67.6606   32.5633 Z5         2 LUT      0.133546
    165 C26        86.3280   66.9296   33.9177 W8         2 LUT     -0.147008
    166 C27        85.5682   67.7336   34.9412 Z7         2 LUT      0.023843
    167 C28        84.3906   67.2320   35.5249 Z8         2 LUT     -0.216987
    168 C29        83.8572   67.4788   36.9157 Z9         2 LUT      0.206524
    169 C30        82.8088   66.6994   37.3106 Y1         2 LUT     -0.215556
    170 C31        82.1553   66.6933   38.6356 Y2         2 LUT      0.025142
    171 C32        81.0534   65.9638   38.9003 Y3         2 LUT     -0.212209
    172 C33        80.1463   66.2103   40.1015 Y4         2 LUT      0.240937
    173 C34        78.9480   65.5189   40.0469 Y5         2 LUT     -0.218862
    174 C35        77.7815   65.4996   41.0199 Y6         2 LUT     -0.023547
    175 C36        88.6655   67.7003   34.8798 Y7         2 LUT     -0.393485
    176 C37        87.7877   65.4611   35.6501 Y7         2 LUT     -0.393485
    177 C38        85.2322   68.5118   32.1115 Y9         2 LUT     -0.387526
    178 C39        84.4586   68.4954   37.8090 W1         2 LUT     -0.322618
    179 C40        80.2090   67.4850   40.9489 W2         2 LUT     -0.358472
    180 H403       79.7525   67.4666   41.8828 R7         2 LUT      0.097720
    181 H402       81.2054   67.8923   41.1643 R7         2 LUT      0.097720
    182 H401       79.7504   68.2842   40.3971 R7         2 LUT      0.097720
    183 H393       85.5082   68.4227   37.7632 R4         2 LUT      0.082505
    184 H392       84.2665   69.4624   37.3343 R4         2 LUT      0.082505
    185 H391       84.2546   68.6056   38.8301 R4         2 LUT      0.082505
    186 H383       85.2439   69.5517   32.5419 R1         2 LUT      0.104030
    187 H382       85.2131   68.5303   31.0052 R1         2 LUT      0.104030
    188 H381       84.2788   67.9749   32.4010 R1         2 LUT      0.104030
    189 H373       87.0558   64.6347   35.5344 T4         2 LUT      0.089537
    190 H372       88.8324   65.1417   35.8720 T4         2 LUT      0.089537
    191 H371       87.4645   65.8860   36.6036 T4         2 LUT      0.089537
    192 H363       88.8082   68.4456   34.0307 T4         2 LUT      0.089537
    193 H362       88.2292   68.2028   35.7246 T4         2 LUT      0.089537
    194 H361       89.5965   67.3763   35.2280 T4         2 LUT      0.089537
    195 H222       89.5386   65.3456   33.5658 U2         2 LUT      0.127376
    196 H221       87.9794   64.6680   32.9898 U2         2 LUT      0.127376
    197 H203       73.8367   62.5422   40.6435 R7         2 LUT      0.087068
    198 H202       72.6111   63.6186   40.8639 R7         2 LUT      0.087068
    199 H201       73.9244   64.3322   39.9692 R7         2 LUT      0.087068
    200 H193       70.7851   61.3435   43.9235 R4         2 LUT      0.089716
    201 H192       69.7603   60.9015   45.2712 R4         2 LUT      0.089716
    202 H191       69.2818   62.1067   44.0155 R4         2 LUT      0.089716
    203 H183       65.7836   65.0424   47.4424 R1         2 LUT      0.094572
    204 H182       67.1865   66.0317   47.7387 R1         2 LUT      0.094572
    205 H181       67.3843   64.8614   46.5459 R1         2 LUT      0.094572
    206 H173       69.2531   63.9485   51.2576 T4         2 LUT      0.093752
    207 H172       69.1770   62.5259   52.0753 T4         2 LUT      0.093752
    208 H171       70.4115   62.7744   51.0244 T4         2 LUT      0.093752
    209 H163       68.1295   60.3220   49.0451 T4         2 LUT      0.093752
    210 H162       69.7902   60.8126   48.8573 T4         2 LUT      0.093752
    211 H161       69.2303   60.2154   50.5108 T4         2 LUT      0.093752
    212 HO3        66.7275   63.8400   52.6165 Q1         2 LUT      0.300121
    213 H8         70.5845   63.7898   47.4230 U7         2 LUT      0.080784
    214 H7         68.3461   61.8863   46.9198 U6         2 LUT      0.042190
    215 H42        65.8478   64.9900   49.7122 U5         2 LUT      0.145166
    216 H41        67.3373   65.1872   50.4309 U5         2 LUT      0.145166
    217 H35        77.8988   65.9846   42.0211 T3         2 LUT      0.077919
    218 H34        78.7300   64.8477   39.1408 T2         2 LUT      0.073626
    219 H32        80.7060   65.2373   38.1428 T1         2 LUT      0.092510
    220 H31        82.3288   67.4957   39.3648 U9         2 LUT      0.070048
    221 H30        82.4984   65.9542   36.6072 U8         2 LUT      0.085442
    222 H3         65.3596   62.8151   50.3301 U3         2 LUT     -0.031596
    223 H28        83.7539   66.5515   34.8955 U7         2 LUT      0.084728
    224 H27        86.0634   68.4219   35.6651 U6         2 LUT      0.087291
    225 H26        85.7294   65.9641   33.7700 Q6         2 LUT      0.075325
    226 H24        87.3011   68.0168   30.7901 Q5         2 LUT      0.094482
    227 H23        89.5533   67.0345   32.0259 U3         2 LUT     -0.024869
    228 H22        66.6078   61.4948   49.9609 U2         2 LUT      0.127376
    229 H21        67.2540   61.5211   51.6798 U2         2 LUT      0.127376
    230 H15        76.3435   64.0904   40.0222 T3         2 LUT      0.093200
    231 H14        75.9690   65.1940   42.8379 T2         2 LUT      0.068865
    232 H12        74.2938   64.6240   44.1188 T1         2 LUT      0.095507
    233 H11        71.8850   63.0527   42.9945 U9         2 LUT      0.068930
    234 H10        72.2226   64.3538   45.7273 U8         2 LUT      0.083911
    235 H1         88.9979   66.0070   30.1109 Q1         2 LUT      0.297311
@<TRIPOS>BOND
    1     6     1 1
    2     7     2 1
    3     8     3 1
    4     9     4 1
    5    11     4 1
    6    12     6 1
    7    13     9 1
    8    16     9 1
    9    25     5 1
   10    25    16 1
   11    26    10 1
   12    26    17 1
   13    27    18 1
   14    28    14 1
   15    28    19 1
   16    29    12 1
   17    30    13 1
   18    31    24 1
   19    32     1 1
   20    32    25 1
   21    33    21 1
   22    33    26 1
   23    34    22 1
   24    34    27 1
   25    35    23 1
   26    35    28 1
   27    36    12 1
   28    36    24 1
   29    37    13 1
   30    37    15 1
   31    38    31 1
   32    39    20 1
   33    39    32 1
   34    40     2 1
   35    40    33 1
   36    41     3 1
   37    41    34 1
   38    42     4 1
   39    42    35 1
   40    43    38 1
   41    44     5 1
   42    44    17 1
   43    44    39 1
   44    45    10 1
   45    45    18 1
   46    45    40 1
   47    46    19 1
   48    46    41 1
   49    47    14 1
   50    47    16 1
   51    47    42 1
   52    48    38 1
   53    49    48 1
   54    50    49 1
   55    51    50 1
   56    52    51 1
   57    53    51 1
   58    54    53 1
   59    55    54 1
   60    56    55 1
   61    57    56 1
   62    58    56 1
   63    59    58 1
   64    60    59 1
   65    61    60 1
   66    62    61 1
   67    63    61 1
   68    64    27 1
   69    64    46 1
   70    65     5 1
   71    65    10 1
   72    65    64 1
   73    65    14 1
   74    66    23 1
   75    67    23 1
   76    68    23 1
   77    69    22 1
   78    70    22 1
   79    71    22 1
   80    72    21 1
   81    73    21 1
   82    74    21 1
   83    75    20 1
   84    76    20 1
   85    77    20 1
   86    78    15 1
   87    79    15 1
   88    80    15 1
   89    81     8 1
   90    82     8 1
   91    83     8 1
   92    84     7 1
   93    85     7 1
   94    86     6 1
   95    87     6 1
   96    88     3 1
   97    89     3 1
   98    90     1 1
   99    91     1 1
  100    92    63 1
  101    93    63 1
  102    94    63 1
  103    95    62 1
  104    96    62 1
  105    97    62 1
  106    98    60 1
  107    99    60 1
  108   100    59 1
  109   101    59 1
  110   102    58 1
  111   103    58 1
  112   104    57 1
  113   105    57 1
  114   106    57 1
  115   107    55 1
  116   108    55 1
  117   109    54 1
  118   110    54 1
  119   111    53 1
  120   112    53 1
  121   113    19 1
  122   114    18 1
  123   115    17 1
  124   116     9 1
  125   117     2 1
  126   118    52 1
  127   119    52 1
  128   120    52 1
  129   121    51 1
  130   122    50 1
  131   123    50 1
  132   124    49 1
  133   125    49 1
  134   126    48 1
  135   127    48 1
  136   128    43 1
  137   129    43 1
  138   130    43 1
  139   131    39 1
  140   132    32 1
  141   133    31 1
  142   134    61 1
  143   135    56 1
  144   136    24 1
  145   137    24 1
  146   139   138 1
  147   140   139 1
  148   141   140 1
  149   142   140 1
  150   143   142 1
  151   144   138 1
  152   144   143 1
  153   145   144 1
  154   146   145 1
  155   147   146 1
  156   148   147 1
  157   149   148 1
  158   150   149 1
  159   151   150 1
  160   152   151 1
  161   153   152 1
  162   154   138 1
  163   155   138 1
  164   156   143 1
  165   157   147 1
  166   158   151 1
  167   160   159 1
  168   161   160 1
  169   162   161 1
  170   163   161 1
  171   164   163 1
  172   165   159 1
  173   165   164 1
  174   166   165 1
  175   167   166 1
  176   168   167 1
  177   169   168 1
  178   170   169 1
  179   171   170 1
  180   172   171 1
  181   173   172 1
  182   174   153 1
  183   174   173 1
  184   175   159 1
  185   176   159 1
  186   177   164 1
  187   178   168 1
  188   179   172 1
  189   180   179 1
  190   181   179 1
  191   182   179 1
  192   183   178 1
  193   184   178 1
  194   185   178 1
  195   186   177 1
  196   187   177 1
  197   188   177 1
  198   189   176 1
  199   190   176 1
  200   191   176 1
  201   192   175 1
  202   193   175 1
  203   194   175 1
  204   195   160 1
  205   196   160 1
  206   197   158 1
  207   198   158 1
  208   199   158 1
  209   200   157 1
  210   201   157 1
  211   202   157 1
  212   203   156 1
  213   204   156 1
  214   205   156 1
  215   206   155 1
  216   207   155 1
  217   208   155 1
  218   209   154 1
  219   210   154 1
  220   211   154 1
  221   212   141 1
  222   213   146 1
  223   214   145 1
  224   215   142 1
  225   216   142 1
  226   217   174 1
  227   218   173 1
  228   219   171 1
  229   220   170 1
  230   221   169 1
  231   222   140 1
  232   223   167 1
  233   224   166 1
  234   225   165 1
  235   226   163 1
  236   227   161 1
  237   228   139 1
  238   229   139 1
  239   230   153 1
  240   231   152 1
  241   232   150 1
  242   233   149 1
  243   234   148 1
  244   235   162 1
  245   65    153 1
  246   65    174 1
@<TRIPOS>SUBSTRUCTURE
      1 CLA               1 ****               0 ****  **** 
      2 LUT             138 ****               0 ****  **** 
