@<TRIPOS>MOLECULE
Cpptraj generated mol2 file.
  235   246     2     0     0
SMALL
USER_CHARGES


@<TRIPOS>ATOM
      1 CAA        79.5506   57.9154   34.6203 a2         1 CLA     -0.055900
      2 CAB        79.5310   62.0802   43.3334 c8         1 CLA     -0.148500
      3 CAC        72.7824   57.6648   43.0288 a2         1 CLA     -0.012600
      4 CAD        75.5456   55.2311   35.8394 ck         1 CLA      0.398800
      5 NA         78.6102   58.4089   37.9868 ns         1 CLA     -0.225500
      6 CBA        80.8007   57.6125   33.6874 a2         1 CLA     -0.135000
      7 CBB        80.6519   62.4970   43.9755 c0         1 CLA     -0.395200
      8 CBC        72.7365   56.1349   43.2520 a3         1 CLA     -0.037700
      9 CBD        77.0247   55.7327   35.6257 a1         1 CLA     -0.053900
     10 NB         78.5375   59.8498   40.4806 nm         1 CLA     -0.295700
     11 OBD        75.0541   54.2414   35.2476 o2         1 CLA     -0.494600
     12 CGA        81.2461   56.1539   33.4618 c4         1 CLA      0.827000
     13 CGD        77.9928   54.5555   35.8107 c4         1 CLA      0.655300
     14 ND         75.7775   57.5003   38.5224 nm         1 CLA     -0.291600
     15 CED        78.3731   52.6177   37.2997 a3         1 CLA      0.005400
     16 CHA        77.3072   56.9089   36.5785 cs         1 CLA     -0.123800
     17 CHB        80.3895   59.8610   38.8095 aa         1 CLA     -0.291900
     18 CHC        77.2752   60.1609   42.5202 aa         1 CLA     -0.090400
     19 CHD        73.9871   57.2946   40.1643 aa         1 CLA     -0.052000
     20 CMA        81.8786   57.3051   37.5903 a3         1 CLA     -0.230700
     21 CMB        81.7091   61.8664   40.7223 a3         1 CLA     -0.180800
     22 CMC        74.8996   59.4892   44.6799 a3         1 CLA     -0.134000
     23 CMD        72.8524   55.2212   38.1402 a3         1 CLA     -0.141100
     24 C1         82.3579   54.1415   34.3124 a2         1 CLA      0.023000
     25 C1A        78.5053   57.5470   36.9384 ac         1 CLA     -0.015100
     26 C1B        79.7515   60.2977   39.9984 cr         1 CLA      0.054700
     27 C1C        76.1023   59.3591   42.2888 cn         1 CLA     -0.005600
     28 C1D        74.5866   56.9379   38.9117 ap         1 CLA     -0.047300
     29 O1A        80.9941   55.4653   32.4823 o2         1 CLA     -0.610800
     30 O1D        78.9532   54.2323   35.0580 o2         1 CLA     -0.558200
     31 C2         82.7119   53.4913   35.6270 c8         1 CLA     -0.325100
     32 C2A        79.7426   57.3331   36.0526 a1         1 CLA      0.098600
     33 C2B        80.3924   61.1612   40.9588 cb         1 CLA      0.088500
     34 C2C        74.9878   59.0418   43.2171 cb         1 CLA      0.053700
     35 C2D        74.1096   55.9815   38.0168 cb         1 CLA      0.058900
     36 O2A        81.9901   55.5947   34.4719 o1         1 CLA     -0.437200
     37 O2D        77.7040   53.9070   37.0077 o1         1 CLA     -0.357600
     38 C3         83.8491   52.8040   35.8377 c5         1 CLA      0.031200
     39 C3A        80.7804   58.1495   36.9219 a1         1 CLA      0.166800
     40 C3B        79.4757   61.2491   42.0704 cb         1 CLA      0.035000
     41 C3C        74.0949   58.2083   42.5182 cb         1 CLA     -0.089900
     42 C3D        75.0969   55.9394   37.0049 cb         1 CLA     -0.035900
     43 C4         84.0512   51.3302   35.3847 a3         1 CLA     -0.053300
     44 C4A        79.8421   58.9419   37.8890 ac         1 CLA      0.001800
     45 C4B        78.3471   60.3926   41.7245 cn         1 CLA     -0.020900
     46 C4C        74.6263   58.0236   41.2022 cr         1 CLA     -0.044400
     47 C4D        76.1138   56.9012   37.3812 c6         1 CLA     -0.046000
     48 C5         85.0871   53.4045   36.4874 a2         1 CLA     -0.070400
     49 C6         84.9605   54.8008   37.0828 a2         1 CLA      0.043900
     50 C7         86.2799   55.1691   37.7306 a2         1 CLA     -0.150000
     51 C8         86.1797   56.2167   38.9427 a1         1 CLA      0.064200
     52 C9         85.2198   57.3549   38.6135 a3         1 CLA     -0.259300
     53 C10        87.6331   56.7817   39.4957 a2         1 CLA     -0.071900
     54 C11        87.7397   57.3176   40.9503 a2         1 CLA      0.014500
     55 C12        87.6407   56.1999   41.9965 a2         1 CLA     -0.112100
     56 C13        88.0548   56.4574   43.4241 a1         1 CLA      0.089200
     57 C14        87.8069   55.2467   44.3682 a3         1 CLA     -0.239100
     58 C15        87.6369   57.8177   43.9651 a2         1 CLA     -0.102200
     59 C16        86.1286   58.2860   44.2273 a2         1 CLA      0.023900
     60 C17        85.5646   57.7467   45.5177 a2         1 CLA     -0.105700
     61 C18        84.1094   58.1527   45.8861 a1         1 CLA      0.206800
     62 C19        83.7615   57.6945   47.3507 a3         1 CLA     -0.280100
     63 C20        83.8374   59.6180   45.6864 a3         1 CLA     -0.280100
     64 NC         75.8064   58.7730   41.0743 nx         1 CLA     -0.309200
     65 MG         77.0595   58.8691   39.4565 mg         1 CLA      0.895000
     66 HMD3       72.9041   54.6906   39.1631 dc         1 CLA      0.064300
     67 HMD2       72.0482   55.9904   38.0453 dc         1 CLA      0.064300
     68 HMD1       72.9206   54.5006   37.2674 dc         1 CLA      0.064300
     69 HMC3       75.8028   59.1295   45.1092 dc         1 CLA      0.052100
     70 HMC2       74.9208   60.5539   44.8787 dc         1 CLA      0.052100
     71 HMC1       74.0444   59.0714   45.2239 dc         1 CLA      0.052100
     72 HMB3       81.9085   62.7654   41.3682 dc         1 CLA      0.063600
     73 HMB2       82.5187   61.1640   40.8889 dc         1 CLA      0.063600
     74 HMB1       81.7735   62.2115   39.6974 dc         1 CLA      0.063600
     75 HMA3       81.5438   56.4896   38.3563 dc         1 CLA      0.058300
     76 HMA2       82.4534   56.7354   36.8498 dc         1 CLA      0.058300
     77 HMA1       82.4491   58.0708   38.0468 dc         1 CLA      0.058300
     78 HED3       79.1280   52.9634   38.0246 dc         1 CLA      0.079300
     79 HED2       77.7265   51.8670   37.7682 dc         1 CLA      0.079300
     80 HED1       78.9618   52.2385   36.4215 dc         1 CLA      0.079300
     81 HBC3       72.6927   55.6060   42.3147 dc         1 CLA      0.016300
     82 HBC2       73.7255   55.9036   43.7110 dc         1 CLA      0.016300
     83 HBC1       71.9503   55.7691   43.9326 dc         1 CLA      0.016300
     84 HBB2       80.5425   63.3478   44.6695 da         1 CLA      0.183000
     85 HBB1       81.6457   62.1766   43.7387 da         1 CLA      0.183000
     86 HBA2       80.5685   57.9052   32.6765 dc         1 CLA      0.029400
     87 HBA1       81.5618   58.3718   33.9298 dc         1 CLA      0.029400
     88 HAC2       72.4704   58.1782   43.9529 dc         1 CLA      0.029300
     89 HAC1       71.9590   57.9418   42.3548 dc         1 CLA      0.029300
     90 HAA2       78.7660   57.3911   34.1723 dc         1 CLA      0.028700
     91 HAA1       79.2905   59.0435   34.6513 dc         1 CLA      0.028700
     92 H203       84.4686   60.3386   46.2241 dc         1 CLA      0.065600
     93 H202       83.8365   59.7841   44.5624 dc         1 CLA      0.065600
     94 H201       82.8392   59.8756   46.0067 dc         1 CLA      0.065600
     95 H193       84.4115   58.2165   48.0816 dc         1 CLA      0.065600
     96 H192       82.7206   57.8219   47.5681 dc         1 CLA      0.065600
     97 H191       83.8689   56.6726   47.4385 dc         1 CLA      0.065600
     98 H172       85.6853   56.6648   45.5606 dc         1 CLA      0.027600
     99 H171       86.2024   58.1313   46.2546 dc         1 CLA      0.027600
    100 H162       86.1824   59.3850   44.3424 dc         1 CLA      0.002900
    101 H161       85.4207   58.0845   43.4853 dc         1 CLA      0.002900
    102 H152       88.0715   57.8843   44.9262 dc         1 CLA      0.029100
    103 H151       88.0838   58.5747   43.2491 dc         1 CLA      0.029100
    104 H143       88.0880   54.2688   43.9231 dc         1 CLA      0.063600
    105 H142       88.3558   55.4070   45.3049 dc         1 CLA      0.063600
    106 H141       86.7130   55.1389   44.4819 dc         1 CLA      0.063600
    107 H122       86.5513   55.9836   41.9763 dc         1 CLA      0.032500
    108 H121       87.9973   55.1962   41.7823 dc         1 CLA      0.032500
    109 H112       88.8616   57.6230   40.9401 dc         1 CLA      0.006600
    110 H111       86.9488   58.0501   41.1402 dc         1 CLA      0.006600
    111 H102       88.3528   55.9681   39.4303 dc         1 CLA      0.024100
    112 H101       87.9679   57.6574   38.8855 dc         1 CLA      0.024100
    113 HHD        73.1260   56.6358   40.3490 da         1 CLA      0.174300
    114 HHC        77.4042   60.5618   43.5425 da         1 CLA      0.136800
    115 HHB        81.4805   60.1880   38.5730 da         1 CLA      0.138300
    116 HBD        77.0111   56.0460   34.5528 dc         1 CLA      0.107700
    117 HAB        78.6081   62.4867   43.7126 da         1 CLA      0.155200
    118 H93        85.5100   57.9331   37.7362 dc         1 CLA      0.069500
    119 H92        84.1700   57.0698   38.6479 dc         1 CLA      0.069500
    120 H91        85.3462   58.0674   39.4741 dc         1 CLA      0.069500
    121 H8         85.6164   55.7066   39.7632 dc         1 CLA      0.029300
    122 H72        86.7332   54.2737   38.0692 dc         1 CLA      0.044400
    123 H71        86.7865   55.5877   36.7487 dc         1 CLA      0.044400
    124 H62        84.5055   55.4752   36.4430 dc         1 CLA      0.015600
    125 H61        84.2973   54.5977   37.9075 dc         1 CLA      0.015600
    126 H52        85.1625   52.7628   37.4331 dc         1 CLA      0.033200
    127 H51        86.0021   53.2146   35.9423 dc         1 CLA      0.033200
    128 H43        83.1990   51.0265   34.7759 dc         1 CLA      0.037000
    129 H42        84.9801   51.1878   34.8159 dc         1 CLA      0.037000
    130 H41        84.1723   50.7284   36.2379 dc         1 CLA      0.037000
    131 H3A        81.2821   58.8727   36.2575 dc         1 CLA      0.041100
    132 H2A        80.0895   56.3723   36.1623 dc         1 CLA      0.083100
    133 H2         81.9448   53.2073   36.3972 da         1 CLA      0.180900
    134 H18        83.4434   57.5345   45.3258 dc         1 CLA     -0.003900
    135 H13        89.1220   56.6775   43.2741 dc         1 CLA      0.019700
    136 H12        81.5162   53.4722   34.0536 dc         1 CLA      0.120400
    137 H11        83.1394   54.1357   33.4670 dc         1 CLA      0.120400
    138 C1         69.7825   60.4888   50.1728 Z1         2 LUT      0.509236
    139 C2         68.3466   60.4662   50.6994 Z2         2 LUT     -0.434695
    140 C3         67.6884   61.7996   50.9962 Z3         2 LUT      0.437453
    141 O3         67.7751   61.8488   52.4305 S1         2 LUT     -0.547129
    142 C4         68.3750   62.9865   50.3377 Z4         2 LUT     -0.468603
    143 C5         69.0116   62.6184   49.0405 Z5         2 LUT      0.279246
    144 C6         69.7831   61.4848   48.9628 Z6         2 LUT     -0.305473
    145 C7         70.1887   61.0106   47.5910 Z7         2 LUT      0.069402
    146 C8         70.9556   61.8178   46.8100 Z8         2 LUT     -0.191631
    147 C9         71.2644   61.7235   45.4080 Z9         2 LUT      0.196698
    148 C10        72.4168   62.3246   45.0211 Y1         2 LUT     -0.208611
    149 C11        72.9922   62.4375   43.7082 Y2         2 LUT      0.030784
    150 C12        74.1936   63.0269   43.4813 Y3         2 LUT     -0.220316
    151 C13        75.0668   63.1596   42.2836 Y4         2 LUT      0.215937
    152 C14        76.3563   63.7691   42.3741 Y5         2 LUT     -0.185793
    153 C15        77.4394   63.9053   41.4596 Y6         2 LUT     -0.057835
    154 C16        70.1927   59.0663   49.7397 Y7         2 LUT     -0.405615
    155 C17        70.8370   60.9729   51.1884 Y7         2 LUT     -0.405615
    156 C18        68.5755   63.5327   47.8998 Y9         2 LUT     -0.369639
    157 C19        70.4614   60.8798   44.4814 W1         2 LUT     -0.333362
    158 C20        74.6029   62.6434   40.9526 W2         2 LUT     -0.323439
    159 C21        88.9606   64.8660   35.4376 Z1         2 LUT      0.406104
    160 C22        89.5683   63.9988   34.2583 Z2         2 LUT     -0.404965
    161 C23        89.5925   64.6925   32.9137 Z3         2 LUT      0.391255
    162 O23        90.0606   63.8384   31.9373 S1         2 LUT     -0.528210
    163 C24        88.2505   65.3889   32.6275 W6         2 LUT     -0.258361
    164 C25        87.3552   65.6689   33.5710 Z5         2 LUT      0.133546
    165 C26        87.4817   65.2213   35.0472 W8         2 LUT     -0.147008
    166 C27        86.7578   66.0424   36.0316 Z7         2 LUT      0.023843
    167 C28        85.4803   65.8141   36.5402 Z8         2 LUT     -0.216987
    168 C29        84.7285   66.4133   37.6336 Z9         2 LUT      0.206524
    169 C30        83.6071   65.7970   38.1284 Y1         2 LUT     -0.215556
    170 C31        82.8740   65.9902   39.4001 Y2         2 LUT      0.025142
    171 C32        81.7629   65.3298   39.7783 Y3         2 LUT     -0.212209
    172 C33        80.8884   65.4732   40.9012 Y4         2 LUT      0.240937
    173 C34        79.7117   64.6831   40.9023 Y5         2 LUT     -0.218862
    174 C35        78.5398   64.5945   41.7799 Y6         2 LUT     -0.023547
    175 C36        89.9262   66.1075   35.6340 Y7         2 LUT     -0.393485
    176 C37        89.1366   64.1128   36.8049 Y7         2 LUT     -0.393485
    177 C38        86.1388   66.5484   33.1587 Y9         2 LUT     -0.387526
    178 C39        85.3094   67.6424   38.2552 W1         2 LUT     -0.322618
    179 C40        81.1964   66.3830   42.0414 W2         2 LUT     -0.358472
    180 H403       81.3083   67.4397   41.8008 R7         2 LUT      0.097720
    181 H402       80.3820   66.4666   42.7173 R7         2 LUT      0.097720
    182 H401       82.0898   66.0831   42.5674 R7         2 LUT      0.097720
    183 H393       84.9288   67.9382   39.2174 R4         2 LUT      0.082505
    184 H392       86.3362   67.4319   38.3680 R4         2 LUT      0.082505
    185 H391       85.3534   68.5519   37.6176 R4         2 LUT      0.082505
    186 H383       85.1080   66.0243   33.3134 R1         2 LUT      0.104030
    187 H382       86.0706   67.4530   33.7951 R1         2 LUT      0.104030
    188 H381       86.1675   66.9727   32.1134 R1         2 LUT      0.104030
    189 H373       90.1435   63.9091   37.0811 T4         2 LUT      0.089537
    190 H372       88.4997   64.5583   37.6363 T4         2 LUT      0.089537
    191 H371       88.6215   63.2201   36.5862 T4         2 LUT      0.089537
    192 H363       89.5242   66.6598   36.4716 T4         2 LUT      0.089537
    193 H362       90.8966   65.7276   35.9606 T4         2 LUT      0.089537
    194 H361       90.0090   66.7296   34.7369 T4         2 LUT      0.089537
    195 H222       90.6629   63.7366   34.4931 U2         2 LUT      0.127376
    196 H221       88.9376   63.1186   34.1274 U2         2 LUT      0.127376
    197 H203       73.4835   62.6102   40.8671 R7         2 LUT      0.087068
    198 H202       74.8688   63.3899   40.1431 R7         2 LUT      0.087068
    199 H201       74.9950   61.6202   40.6700 R7         2 LUT      0.087068
    200 H193       69.7252   60.2291   44.8133 R4         2 LUT      0.089716
    201 H192       70.0176   61.4914   43.6591 R4         2 LUT      0.089716
    202 H191       71.1830   60.2563   43.9746 R4         2 LUT      0.089716
    203 H183       67.6306   64.0194   48.0391 R1         2 LUT      0.094572
    204 H182       69.3572   64.2746   47.6002 R1         2 LUT      0.094572
    205 H181       68.4818   62.9909   46.9897 R1         2 LUT      0.094572
    206 H173       71.6515   61.5068   50.7505 T4         2 LUT      0.093752
    207 H172       70.4393   61.7295   51.9060 T4         2 LUT      0.093752
    208 H171       71.3188   60.2396   51.8365 T4         2 LUT      0.093752
    209 H163       71.1665   59.1035   49.2074 T4         2 LUT      0.093752
    210 H162       70.4014   58.2852   50.4963 T4         2 LUT      0.093752
    211 H161       69.4861   58.6753   49.0860 T4         2 LUT      0.093752
    212 HO3        67.0447   62.3259   52.9143 Q1         2 LUT      0.300121
    213 H8         71.3188   62.6686   47.3610 U7         2 LUT      0.080784
    214 H7         69.8235   60.0380   47.2301 U6         2 LUT      0.042190
    215 H42        67.6564   63.7642   50.2063 U5         2 LUT      0.145166
    216 H41        69.2721   63.3350   50.9080 U5         2 LUT      0.145166
    217 H35        78.4799   65.2416   42.6750 T3         2 LUT      0.077919
    218 H34        79.6096   64.0454   39.9972 T2         2 LUT      0.073626
    219 H32        81.3393   64.5936   39.0675 T1         2 LUT      0.092510
    220 H31        83.2448   66.6947   40.1389 U9         2 LUT      0.070048
    221 H30        83.3324   64.9300   37.5764 U8         2 LUT      0.085442
    222 H3         66.5923   61.8282   50.8395 U3         2 LUT     -0.031596
    223 H28        84.9201   65.1128   35.9324 U7         2 LUT      0.084728
    224 H27        87.3220   66.8139   36.4506 U6         2 LUT      0.087291
    225 H26        86.8832   64.3323   35.0740 Q6         2 LUT      0.075325
    226 H24        88.1542   65.7788   31.5449 Q5         2 LUT      0.094482
    227 H23        90.3117   65.5265   33.0708 U3         2 LUT     -0.024869
    228 H22        67.6871   59.8657   50.0375 U2         2 LUT      0.127376
    229 H21        68.4691   59.9445   51.6615 U2         2 LUT      0.127376
    230 H15        77.5996   63.2554   40.5667 T3         2 LUT      0.093200
    231 H14        76.5844   64.0595   43.4081 T2         2 LUT      0.068865
    232 H12        74.5866   63.4255   44.3806 T1         2 LUT      0.095507
    233 H11        72.4298   61.9132   42.8836 U9         2 LUT      0.068930
    234 H10        72.9877   62.7762   45.8094 U8         2 LUT      0.083911
    235 H1         90.5105   64.2263   31.1905 Q1         2 LUT      0.297311
@<TRIPOS>BOND
    1     6     1 1
    2     7     2 1
    3     8     3 1
    4     9     4 1
    5    11     4 1
    6    12     6 1
    7    13     9 1
    8    16     9 1
    9    25     5 1
   10    25    16 1
   11    26    10 1
   12    26    17 1
   13    27    18 1
   14    28    14 1
   15    28    19 1
   16    29    12 1
   17    30    13 1
   18    31    24 1
   19    32     1 1
   20    32    25 1
   21    33    21 1
   22    33    26 1
   23    34    22 1
   24    34    27 1
   25    35    23 1
   26    35    28 1
   27    36    12 1
   28    36    24 1
   29    37    13 1
   30    37    15 1
   31    38    31 1
   32    39    20 1
   33    39    32 1
   34    40     2 1
   35    40    33 1
   36    41     3 1
   37    41    34 1
   38    42     4 1
   39    42    35 1
   40    43    38 1
   41    44     5 1
   42    44    17 1
   43    44    39 1
   44    45    10 1
   45    45    18 1
   46    45    40 1
   47    46    19 1
   48    46    41 1
   49    47    14 1
   50    47    16 1
   51    47    42 1
   52    48    38 1
   53    49    48 1
   54    50    49 1
   55    51    50 1
   56    52    51 1
   57    53    51 1
   58    54    53 1
   59    55    54 1
   60    56    55 1
   61    57    56 1
   62    58    56 1
   63    59    58 1
   64    60    59 1
   65    61    60 1
   66    62    61 1
   67    63    61 1
   68    64    27 1
   69    64    46 1
   70    65     5 1
   71    65    10 1
   72    65    64 1
   73    65    14 1
   74    66    23 1
   75    67    23 1
   76    68    23 1
   77    69    22 1
   78    70    22 1
   79    71    22 1
   80    72    21 1
   81    73    21 1
   82    74    21 1
   83    75    20 1
   84    76    20 1
   85    77    20 1
   86    78    15 1
   87    79    15 1
   88    80    15 1
   89    81     8 1
   90    82     8 1
   91    83     8 1
   92    84     7 1
   93    85     7 1
   94    86     6 1
   95    87     6 1
   96    88     3 1
   97    89     3 1
   98    90     1 1
   99    91     1 1
  100    92    63 1
  101    93    63 1
  102    94    63 1
  103    95    62 1
  104    96    62 1
  105    97    62 1
  106    98    60 1
  107    99    60 1
  108   100    59 1
  109   101    59 1
  110   102    58 1
  111   103    58 1
  112   104    57 1
  113   105    57 1
  114   106    57 1
  115   107    55 1
  116   108    55 1
  117   109    54 1
  118   110    54 1
  119   111    53 1
  120   112    53 1
  121   113    19 1
  122   114    18 1
  123   115    17 1
  124   116     9 1
  125   117     2 1
  126   118    52 1
  127   119    52 1
  128   120    52 1
  129   121    51 1
  130   122    50 1
  131   123    50 1
  132   124    49 1
  133   125    49 1
  134   126    48 1
  135   127    48 1
  136   128    43 1
  137   129    43 1
  138   130    43 1
  139   131    39 1
  140   132    32 1
  141   133    31 1
  142   134    61 1
  143   135    56 1
  144   136    24 1
  145   137    24 1
  146   139   138 1
  147   140   139 1
  148   141   140 1
  149   142   140 1
  150   143   142 1
  151   144   138 1
  152   144   143 1
  153   145   144 1
  154   146   145 1
  155   147   146 1
  156   148   147 1
  157   149   148 1
  158   150   149 1
  159   151   150 1
  160   152   151 1
  161   153   152 1
  162   154   138 1
  163   155   138 1
  164   156   143 1
  165   157   147 1
  166   158   151 1
  167   160   159 1
  168   161   160 1
  169   162   161 1
  170   163   161 1
  171   164   163 1
  172   165   159 1
  173   165   164 1
  174   166   165 1
  175   167   166 1
  176   168   167 1
  177   169   168 1
  178   170   169 1
  179   171   170 1
  180   172   171 1
  181   173   172 1
  182   174   153 1
  183   174   173 1
  184   175   159 1
  185   176   159 1
  186   177   164 1
  187   178   168 1
  188   179   172 1
  189   180   179 1
  190   181   179 1
  191   182   179 1
  192   183   178 1
  193   184   178 1
  194   185   178 1
  195   186   177 1
  196   187   177 1
  197   188   177 1
  198   189   176 1
  199   190   176 1
  200   191   176 1
  201   192   175 1
  202   193   175 1
  203   194   175 1
  204   195   160 1
  205   196   160 1
  206   197   158 1
  207   198   158 1
  208   199   158 1
  209   200   157 1
  210   201   157 1
  211   202   157 1
  212   203   156 1
  213   204   156 1
  214   205   156 1
  215   206   155 1
  216   207   155 1
  217   208   155 1
  218   209   154 1
  219   210   154 1
  220   211   154 1
  221   212   141 1
  222   213   146 1
  223   214   145 1
  224   215   142 1
  225   216   142 1
  226   217   174 1
  227   218   173 1
  228   219   171 1
  229   220   170 1
  230   221   169 1
  231   222   140 1
  232   223   167 1
  233   224   166 1
  234   225   165 1
  235   226   163 1
  236   227   161 1
  237   228   139 1
  238   229   139 1
  239   230   153 1
  240   231   152 1
  241   232   150 1
  242   233   149 1
  243   234   148 1
  244   235   162 1
  245   65    153 1
  246   65    174 1
@<TRIPOS>SUBSTRUCTURE
      1 CLA               1 ****               0 ****  **** 
      2 LUT             138 ****               0 ****  **** 
