@<TRIPOS>MOLECULE
Cpptraj generated mol2 file.
  235   246     2     0     0
SMALL
USER_CHARGES


@<TRIPOS>ATOM
      1 CAA        77.8543   58.7834   35.4078 a2         1 CLA     -0.055900
      2 CAB        77.1993   62.8972   44.2608 c8         1 CLA     -0.148500
      3 CAC        70.6190   58.5309   43.6785 a2         1 CLA     -0.012600
      4 CAD        74.0755   55.6077   36.6842 ck         1 CLA      0.398800
      5 NA         76.8089   59.0260   38.8017 ns         1 CLA     -0.225500
      6 CBA        79.0797   58.9465   34.5223 a2         1 CLA     -0.135000
      7 CBB        78.2016   63.0755   45.0821 c0         1 CLA     -0.395200
      8 CBC        70.8794   57.1059   44.3055 a3         1 CLA     -0.037700
      9 CBD        75.5130   56.1908   36.3952 a1         1 CLA     -0.053900
     10 NB         76.4975   60.6054   41.3164 nm         1 CLA     -0.295700
     11 OBD        73.5450   54.6922   36.0655 o2         1 CLA     -0.494600
     12 CGA        79.6965   57.6584   33.8738 c4         1 CLA      0.827000
     13 CGD        76.5253   55.1258   36.3103 c4         1 CLA      0.655300
     14 ND         74.0097   58.0210   39.2125 nm         1 CLA     -0.291600
     15 CED        77.2326   53.1690   37.3257 a3         1 CLA      0.005400
     16 CHA        75.6522   57.3026   37.4977 cs         1 CLA     -0.123800
     17 CHB        78.4710   60.5479   39.8434 aa         1 CLA     -0.291900
     18 CHC        75.1572   60.6874   43.3632 aa         1 CLA     -0.090400
     19 CHD        72.0654   57.8772   40.7949 aa         1 CLA     -0.052000
     20 CMA        80.2589   58.5563   38.3627 a3         1 CLA     -0.230700
     21 CMB        79.6198   62.6771   41.9636 a3         1 CLA     -0.180800
     22 CMC        72.7198   60.4483   45.2334 a3         1 CLA     -0.134000
     23 CMD        71.3174   55.4547   38.7176 a3         1 CLA     -0.141100
     24 C1         80.9538   55.6489   34.3367 a2         1 CLA      0.023000
     25 C1A        76.7983   58.1701   37.7163 ac         1 CLA     -0.015100
     26 C1B        77.8016   61.0261   40.9861 cr         1 CLA      0.054700
     27 C1C        73.9492   60.0062   42.9965 cn         1 CLA     -0.005600
     28 C1D        72.8072   57.4546   39.5997 ap         1 CLA     -0.047300
     29 O1A        79.6681   57.3764   32.6735 o2         1 CLA     -0.610800
     30 O1D        77.3856   55.0980   35.4508 o2         1 CLA     -0.558200
     31 C2         81.1905   54.7088   35.4982 c8         1 CLA     -0.325100
     32 C2A        78.1196   58.3292   36.8595 a1         1 CLA      0.098600
     33 C2B        78.2935   62.0108   41.9468 cb         1 CLA      0.088500
     34 C2C        72.8091   59.8411   43.8491 cb         1 CLA      0.053700
     35 C2D        72.4311   56.4105   38.6474 cb         1 CLA      0.058900
     36 O2A        80.3732   56.9415   34.7733 o1         1 CLA     -0.437200
     37 O2D        76.3550   54.3170   37.4025 o1         1 CLA     -0.357600
     38 C3         82.4060   54.5049   36.0161 c5         1 CLA      0.031200
     39 C3A        78.9498   59.1999   37.8102 a1         1 CLA      0.166800
     40 C3B        77.2667   62.0709   42.9781 cb         1 CLA      0.035000
     41 C3C        71.8980   59.0894   43.1111 cb         1 CLA     -0.089900
     42 C3D        73.5511   56.3702   37.7722 cb         1 CLA     -0.035900
     43 C4         83.4959   53.5866   35.4626 a3         1 CLA     -0.053300
     44 C4A        78.0159   59.5744   38.9246 ac         1 CLA      0.001800
     45 C4B        76.2716   61.0372   42.5893 cn         1 CLA     -0.020900
     46 C4C        72.5130   58.8213   41.8012 cr         1 CLA     -0.044400
     47 C4D        74.5029   57.3330   38.2440 c6         1 CLA     -0.046000
     48 C5         82.7856   55.0739   37.3828 a2         1 CLA     -0.070400
     49 C6         83.4312   56.4397   37.2403 a2         1 CLA      0.043900
     50 C7         83.7078   57.0666   38.5896 a2         1 CLA     -0.150000
     51 C8         84.4464   58.4986   38.8525 a1         1 CLA      0.064200
     52 C9         85.8096   58.5255   37.9865 a3         1 CLA     -0.259300
     53 C10        84.6725   58.7955   40.3239 a2         1 CLA     -0.071900
     54 C11        83.4163   58.6052   41.1952 a2         1 CLA      0.014500
     55 C12        83.3410   59.5005   42.4068 a2         1 CLA     -0.112100
     56 C13        84.4173   59.2952   43.5014 a1         1 CLA      0.089200
     57 C14        84.2169   58.0656   44.4141 a3         1 CLA     -0.239100
     58 C15        84.5971   60.6071   44.3179 a2         1 CLA     -0.102200
     59 C16        83.3404   61.2302   45.0657 a2         1 CLA      0.023900
     60 C17        83.6909   62.4860   45.8389 a2         1 CLA     -0.105700
     61 C18        82.4020   63.1344   46.4550 a1         1 CLA      0.206800
     62 C19        81.7018   62.1520   47.5019 a3         1 CLA     -0.280100
     63 C20        82.5762   64.5003   47.0911 a3         1 CLA     -0.280100
     64 NC         73.7549   59.4765   41.7736 nx         1 CLA     -0.309200
     65 MG         75.2242   59.3853   40.2242 mg         1 CLA      0.895000
     66 HMD3       70.4156   55.9440   38.3967 dc         1 CLA      0.064300
     67 HMD2       71.5349   54.5999   38.1473 dc         1 CLA      0.064300
     68 HMD1       71.2447   55.0318   39.7240 dc         1 CLA      0.064300
     69 HMC3       71.7509   60.2470   45.6409 dc         1 CLA      0.052100
     70 HMC2       73.5375   59.9231   45.8165 dc         1 CLA      0.052100
     71 HMC1       72.9392   61.5386   45.2070 dc         1 CLA      0.052100
     72 HMB3       80.3398   61.9526   42.2090 dc         1 CLA      0.063600
     73 HMB2       79.8129   63.1464   41.0220 dc         1 CLA      0.063600
     74 HMB1       79.8210   63.4003   42.6447 dc         1 CLA      0.063600
     75 HMA3       80.6609   59.2190   39.0797 dc         1 CLA      0.058300
     76 HMA2       79.8714   57.6083   38.7946 dc         1 CLA      0.058300
     77 HMA1       81.0260   58.4096   37.5782 dc         1 CLA      0.058300
     78 HED3       76.9604   52.6414   36.3995 dc         1 CLA      0.079300
     79 HED2       78.3045   53.4789   37.2521 dc         1 CLA      0.079300
     80 HED1       77.0555   52.5440   38.2713 dc         1 CLA      0.079300
     81 HBC3       71.6116   56.5130   43.7430 dc         1 CLA      0.016300
     82 HBC2       71.2967   57.2055   45.3009 dc         1 CLA      0.016300
     83 HBC1       69.9189   56.5658   44.3784 dc         1 CLA      0.016300
     84 HBB2       78.0833   63.7115   45.9714 da         1 CLA      0.183000
     85 HBB1       79.1591   62.6662   45.0245 da         1 CLA      0.183000
     86 HBA2       78.8145   59.5899   33.6796 dc         1 CLA      0.029400
     87 HBA1       79.8357   59.5279   35.1125 dc         1 CLA      0.029400
     88 HAC2       70.3087   59.2712   44.4803 dc         1 CLA      0.029300
     89 HAC1       69.8058   58.5069   42.9658 dc         1 CLA      0.029300
     90 HAA2       77.0882   58.0739   34.9461 dc         1 CLA      0.028700
     91 HAA1       77.4495   59.7778   35.3731 dc         1 CLA      0.028700
     92 H203       82.9855   64.3043   48.1007 dc         1 CLA      0.065600
     93 H202       83.1394   65.2458   46.5613 dc         1 CLA      0.065600
     94 H201       81.6460   64.9504   47.2743 dc         1 CLA      0.065600
     95 H193       82.5499   61.5935   47.8203 dc         1 CLA      0.065600
     96 H192       81.2352   62.7649   48.2896 dc         1 CLA      0.065600
     97 H191       81.0880   61.4574   47.0347 dc         1 CLA      0.065600
     98 H172       84.3286   62.1856   46.6870 dc         1 CLA      0.027600
     99 H171       84.1478   63.1931   45.1560 dc         1 CLA      0.027600
    100 H162       82.5645   61.4935   44.4200 dc         1 CLA      0.002900
    101 H161       82.9266   60.4071   45.7260 dc         1 CLA      0.002900
    102 H152       85.3585   60.3554   45.0053 dc         1 CLA      0.029100
    103 H151       84.9762   61.4000   43.7043 dc         1 CLA      0.029100
    104 H143       83.3309   58.2319   45.0113 dc         1 CLA      0.063600
    105 H142       83.9880   57.1424   43.7942 dc         1 CLA      0.063600
    106 H141       85.0924   57.9763   45.0186 dc         1 CLA      0.063600
    107 H122       83.3941   60.5240   42.0268 dc         1 CLA      0.032500
    108 H121       82.3902   59.3576   42.8868 dc         1 CLA      0.032500
    109 H112       82.4679   58.6530   40.5942 dc         1 CLA      0.006600
    110 H111       83.3012   57.6041   41.5615 dc         1 CLA      0.006600
    111 H102       85.5112   58.1912   40.7004 dc         1 CLA      0.024100
    112 H101       84.9573   59.8161   40.3971 dc         1 CLA      0.024100
    113 HHD        71.1733   57.3432   40.9361 da         1 CLA      0.174300
    114 HHC        75.2712   61.0710   44.3359 da         1 CLA      0.136800
    115 HHB        79.4950   60.9087   39.7627 da         1 CLA      0.138300
    116 HBD        75.3541   56.6218   35.3706 dc         1 CLA      0.107700
    117 HAB        76.2685   63.3100   44.6129 da         1 CLA      0.155200
    118 H93        86.4303   57.7629   38.3922 dc         1 CLA      0.069500
    119 H92        85.5143   58.2336   36.9460 dc         1 CLA      0.069500
    120 H91        86.2898   59.4862   38.1254 dc         1 CLA      0.069500
    121 H8         83.8925   59.3538   38.4871 dc         1 CLA      0.029300
    122 H72        82.6689   57.1445   38.9321 dc         1 CLA      0.044400
    123 H71        84.2009   56.3559   39.1985 dc         1 CLA      0.044400
    124 H62        84.3000   56.2614   36.6295 dc         1 CLA      0.015600
    125 H61        82.7038   57.1274   36.7416 dc         1 CLA      0.015600
    126 H52        81.9856   54.9971   38.1258 dc         1 CLA      0.033200
    127 H51        83.5258   54.3678   37.8419 dc         1 CLA      0.033200
    128 H43        83.9904   52.9467   36.1990 dc         1 CLA      0.037000
    129 H42        83.0910   52.9195   34.6350 dc         1 CLA      0.037000
    130 H41        84.1841   54.3643   35.0130 dc         1 CLA      0.037000
    131 H3A        79.3179   60.0362   37.2351 dc         1 CLA      0.041100
    132 H2A        78.6083   57.3492   36.7386 dc         1 CLA      0.083100
    133 H2         80.5376   53.8972   35.7229 da         1 CLA      0.180900
    134 H18        81.7473   63.2883   45.6284 dc         1 CLA     -0.003900
    135 H13        85.3302   59.1226   42.9787 dc         1 CLA      0.019700
    136 H12        80.1803   55.1271   33.7963 dc         1 CLA      0.120400
    137 H11        81.8346   55.8108   33.6618 dc         1 CLA      0.120400
    138 C1         66.8086   62.5014   50.7299 Z1         2 LUT      0.509236
    139 C2         66.8080   63.7828   51.5950 Z2         2 LUT     -0.434695
    140 C3         65.4213   64.4833   51.6231 Z3         2 LUT      0.437453
    141 O3         65.5555   65.8749   52.0472 S1         2 LUT     -0.547129
    142 C4         64.7362   64.4218   50.2399 Z4         2 LUT     -0.468603
    143 C5         65.5099   63.8321   49.1119 Z5         2 LUT      0.279246
    144 C6         66.4516   62.8441   49.3172 Z6         2 LUT     -0.305473
    145 C7         67.2995   62.3377   48.2273 Z7         2 LUT      0.069402
    146 C8         68.1575   62.9401   47.3652 Z8         2 LUT     -0.191631
    147 C9         68.8262   62.3833   46.2484 Z9         2 LUT      0.196698
    148 C10        69.6747   63.1457   45.4543 Y1         2 LUT     -0.208611
    149 C11        70.3765   62.8852   44.2377 Y2         2 LUT      0.030784
    150 C12        71.5329   63.5821   43.9073 Y3         2 LUT     -0.220316
    151 C13        72.4641   63.2835   42.9209 Y4         2 LUT      0.215937
    152 C14        73.5747   64.1496   42.8819 Y5         2 LUT     -0.185793
    153 C15        74.6986   64.0762   42.0640 Y6         2 LUT     -0.057835
    154 C16        65.7240   61.5589   51.3689 Y7         2 LUT     -0.405615
    155 C17        68.1970   61.8818   50.9897 Y7         2 LUT     -0.405615
    156 C18        65.5032   64.6892   47.8172 Y9         2 LUT     -0.369639
    157 C19        68.2989   61.0429   45.8520 W1         2 LUT     -0.333362
    158 C20        72.0620   62.5497   41.6850 W2         2 LUT     -0.323439
    159 C21        86.5008   66.1313   36.8617 Z1         2 LUT      0.406104
    160 C22        87.1588   65.2768   35.7510 Z2         2 LUT     -0.404965
    161 C23        87.3998   66.0089   34.4494 Z3         2 LUT      0.391255
    162 O23        87.4660   64.9292   33.5007 S1         2 LUT     -0.528210
    163 C24        86.1656   66.8596   34.0473 W6         2 LUT     -0.258361
    164 C25        85.1451   67.0527   34.9034 Z5         2 LUT      0.133546
    165 C26        85.0819   66.4763   36.3420 W8         2 LUT     -0.147008
    166 C27        84.0688   67.0706   37.3183 Z7         2 LUT      0.023843
    167 C28        82.8992   66.5472   37.7564 Z8         2 LUT     -0.216987
    168 C29        82.1131   66.9453   38.9113 Z9         2 LUT      0.206524
    169 C30        81.0236   66.2356   39.2122 Y1         2 LUT     -0.215556
    170 C31        80.0971   66.4043   40.3008 Y2         2 LUT      0.025142
    171 C32        78.9259   65.6921   40.4085 Y3         2 LUT     -0.212209
    172 C33        78.0545   65.7533   41.5645 Y4         2 LUT      0.240937
    173 C34        76.9557   64.9336   41.4570 Y5         2 LUT     -0.218862
    174 C35        75.8352   64.8671   42.3074 Y6         2 LUT     -0.023547
    175 C36        87.4781   67.4031   37.1503 Y7         2 LUT     -0.393485
    176 C37        86.5537   65.2052   38.0827 Y7         2 LUT     -0.393485
    177 C38        83.9274   67.8744   34.5307 Y9         2 LUT     -0.387526
    178 C39        82.6579   68.1718   39.6020 W1         2 LUT     -0.322618
    179 C40        78.4443   66.5361   42.7751 W2         2 LUT     -0.358472
    180 H403       78.4668   67.6410   42.6639 R7         2 LUT      0.097720
    181 H402       77.9662   66.3823   43.6856 R7         2 LUT      0.097720
    182 H401       79.4600   66.3285   43.1403 R7         2 LUT      0.097720
    183 H393       82.1104   68.3844   40.5634 R4         2 LUT      0.082505
    184 H392       83.6280   68.0322   39.9938 R4         2 LUT      0.082505
    185 H391       82.7718   69.0694   39.0170 R4         2 LUT      0.082505
    186 H383       83.9010   68.8485   34.9805 R1         2 LUT      0.104030
    187 H382       83.8931   67.9511   33.4386 R1         2 LUT      0.104030
    188 H381       83.0270   67.4133   34.9315 R1         2 LUT      0.104030
    189 H373       87.5152   65.0102   38.4790 T4         2 LUT      0.089537
    190 H372       86.0729   65.5673   38.9774 T4         2 LUT      0.089537
    191 H371       86.1705   64.1910   37.7945 T4         2 LUT      0.089537
    192 H363       87.4872   67.9595   36.2668 T4         2 LUT      0.089537
    193 H362       87.1404   67.9962   38.0442 T4         2 LUT      0.089537
    194 H361       88.4423   67.0853   37.4993 T4         2 LUT      0.089537
    195 H222       88.1118   64.8980   36.1659 U2         2 LUT      0.127376
    196 H221       86.5271   64.4771   35.5146 U2         2 LUT      0.127376
    197 H203       71.0705   62.1712   41.6831 R7         2 LUT      0.087068
    198 H202       72.0210   63.2713   40.7875 R7         2 LUT      0.087068
    199 H201       72.7426   61.8154   41.3152 R7         2 LUT      0.087068
    200 H193       68.3852   60.7580   44.7906 R4         2 LUT      0.089716
    201 H192       68.6692   60.1589   46.3993 R4         2 LUT      0.089716
    202 H191       67.1502   60.9413   45.9924 R4         2 LUT      0.089716
    203 H183       64.4545   64.7796   47.4946 R1         2 LUT      0.094572
    204 H182       65.9042   65.6977   47.9088 R1         2 LUT      0.094572
    205 H181       66.0740   64.2788   46.9597 R1         2 LUT      0.094572
    206 H173       68.2973   61.5560   52.0359 T4         2 LUT      0.093752
    207 H172       68.4275   61.0735   50.3552 T4         2 LUT      0.093752
    208 H171       69.0021   62.6145   50.8193 T4         2 LUT      0.093752
    209 H163       65.7523   60.5756   50.9531 T4         2 LUT      0.093752
    210 H162       66.0163   61.4041   52.3868 T4         2 LUT      0.093752
    211 H161       64.6887   61.9074   51.3837 T4         2 LUT      0.093752
    212 HO3        64.8462   66.1250   52.6781 Q1         2 LUT      0.300121
    213 H8         68.3980   63.9867   47.6021 U7         2 LUT      0.080784
    214 H7         67.0776   61.3172   48.1313 U6         2 LUT      0.042190
    215 H42        63.7953   63.8540   50.3661 U5         2 LUT      0.145166
    216 H41        64.4376   65.4751   49.9856 U5         2 LUT      0.145166
    217 H35        75.8607   65.4411   43.1820 T3         2 LUT      0.077919
    218 H34        76.8983   64.3885   40.5334 T2         2 LUT      0.073626
    219 H32        78.6666   65.1168   39.5628 T1         2 LUT      0.092510
    220 H31        80.4193   67.0895   41.0255 U9         2 LUT      0.070048
    221 H30        80.7088   65.4641   38.5281 U8         2 LUT      0.085442
    222 H3         64.9474   63.6983   52.3359 U3         2 LUT     -0.031596
    223 H28        82.3919   65.7131   37.2721 U7         2 LUT      0.084728
    224 H27        84.5060   67.8995   37.7999 U6         2 LUT      0.087291
    225 H26        84.6364   65.4426   36.2401 Q6         2 LUT      0.075325
    226 H24        86.1594   67.3003   33.0303 Q5         2 LUT      0.094482
    227 H23        88.2160   66.7322   34.5031 U3         2 LUT     -0.024869
    228 H22        66.9976   63.5727   52.6797 U2         2 LUT      0.127376
    229 H21        67.5286   64.5038   51.1967 U2         2 LUT      0.127376
    230 H15        74.6806   63.5326   41.2087 T3         2 LUT      0.093200
    231 H14        73.5657   64.9008   43.6477 T2         2 LUT      0.068865
    232 H12        71.8987   64.3902   44.5685 T1         2 LUT      0.095507
    233 H11        70.0802   61.9718   43.7007 U9         2 LUT      0.068930
    234 H10        69.9398   64.1169   45.9446 U8         2 LUT      0.083911
    235 H1         87.6612   65.2987   32.6138 Q1         2 LUT      0.297311
@<TRIPOS>BOND
    1     6     1 1
    2     7     2 1
    3     8     3 1
    4     9     4 1
    5    11     4 1
    6    12     6 1
    7    13     9 1
    8    16     9 1
    9    25     5 1
   10    25    16 1
   11    26    10 1
   12    26    17 1
   13    27    18 1
   14    28    14 1
   15    28    19 1
   16    29    12 1
   17    30    13 1
   18    31    24 1
   19    32     1 1
   20    32    25 1
   21    33    21 1
   22    33    26 1
   23    34    22 1
   24    34    27 1
   25    35    23 1
   26    35    28 1
   27    36    12 1
   28    36    24 1
   29    37    13 1
   30    37    15 1
   31    38    31 1
   32    39    20 1
   33    39    32 1
   34    40     2 1
   35    40    33 1
   36    41     3 1
   37    41    34 1
   38    42     4 1
   39    42    35 1
   40    43    38 1
   41    44     5 1
   42    44    17 1
   43    44    39 1
   44    45    10 1
   45    45    18 1
   46    45    40 1
   47    46    19 1
   48    46    41 1
   49    47    14 1
   50    47    16 1
   51    47    42 1
   52    48    38 1
   53    49    48 1
   54    50    49 1
   55    51    50 1
   56    52    51 1
   57    53    51 1
   58    54    53 1
   59    55    54 1
   60    56    55 1
   61    57    56 1
   62    58    56 1
   63    59    58 1
   64    60    59 1
   65    61    60 1
   66    62    61 1
   67    63    61 1
   68    64    27 1
   69    64    46 1
   70    65     5 1
   71    65    10 1
   72    65    64 1
   73    65    14 1
   74    66    23 1
   75    67    23 1
   76    68    23 1
   77    69    22 1
   78    70    22 1
   79    71    22 1
   80    72    21 1
   81    73    21 1
   82    74    21 1
   83    75    20 1
   84    76    20 1
   85    77    20 1
   86    78    15 1
   87    79    15 1
   88    80    15 1
   89    81     8 1
   90    82     8 1
   91    83     8 1
   92    84     7 1
   93    85     7 1
   94    86     6 1
   95    87     6 1
   96    88     3 1
   97    89     3 1
   98    90     1 1
   99    91     1 1
  100    92    63 1
  101    93    63 1
  102    94    63 1
  103    95    62 1
  104    96    62 1
  105    97    62 1
  106    98    60 1
  107    99    60 1
  108   100    59 1
  109   101    59 1
  110   102    58 1
  111   103    58 1
  112   104    57 1
  113   105    57 1
  114   106    57 1
  115   107    55 1
  116   108    55 1
  117   109    54 1
  118   110    54 1
  119   111    53 1
  120   112    53 1
  121   113    19 1
  122   114    18 1
  123   115    17 1
  124   116     9 1
  125   117     2 1
  126   118    52 1
  127   119    52 1
  128   120    52 1
  129   121    51 1
  130   122    50 1
  131   123    50 1
  132   124    49 1
  133   125    49 1
  134   126    48 1
  135   127    48 1
  136   128    43 1
  137   129    43 1
  138   130    43 1
  139   131    39 1
  140   132    32 1
  141   133    31 1
  142   134    61 1
  143   135    56 1
  144   136    24 1
  145   137    24 1
  146   139   138 1
  147   140   139 1
  148   141   140 1
  149   142   140 1
  150   143   142 1
  151   144   138 1
  152   144   143 1
  153   145   144 1
  154   146   145 1
  155   147   146 1
  156   148   147 1
  157   149   148 1
  158   150   149 1
  159   151   150 1
  160   152   151 1
  161   153   152 1
  162   154   138 1
  163   155   138 1
  164   156   143 1
  165   157   147 1
  166   158   151 1
  167   160   159 1
  168   161   160 1
  169   162   161 1
  170   163   161 1
  171   164   163 1
  172   165   159 1
  173   165   164 1
  174   166   165 1
  175   167   166 1
  176   168   167 1
  177   169   168 1
  178   170   169 1
  179   171   170 1
  180   172   171 1
  181   173   172 1
  182   174   153 1
  183   174   173 1
  184   175   159 1
  185   176   159 1
  186   177   164 1
  187   178   168 1
  188   179   172 1
  189   180   179 1
  190   181   179 1
  191   182   179 1
  192   183   178 1
  193   184   178 1
  194   185   178 1
  195   186   177 1
  196   187   177 1
  197   188   177 1
  198   189   176 1
  199   190   176 1
  200   191   176 1
  201   192   175 1
  202   193   175 1
  203   194   175 1
  204   195   160 1
  205   196   160 1
  206   197   158 1
  207   198   158 1
  208   199   158 1
  209   200   157 1
  210   201   157 1
  211   202   157 1
  212   203   156 1
  213   204   156 1
  214   205   156 1
  215   206   155 1
  216   207   155 1
  217   208   155 1
  218   209   154 1
  219   210   154 1
  220   211   154 1
  221   212   141 1
  222   213   146 1
  223   214   145 1
  224   215   142 1
  225   216   142 1
  226   217   174 1
  227   218   173 1
  228   219   171 1
  229   220   170 1
  230   221   169 1
  231   222   140 1
  232   223   167 1
  233   224   166 1
  234   225   165 1
  235   226   163 1
  236   227   161 1
  237   228   139 1
  238   229   139 1
  239   230   153 1
  240   231   152 1
  241   232   150 1
  242   233   149 1
  243   234   148 1
  244   235   162 1
  245   65    153 1
  246   65    174 1
@<TRIPOS>SUBSTRUCTURE
      1 CLA               1 ****               0 ****  **** 
      2 LUT             138 ****               0 ****  **** 
