@<TRIPOS>MOLECULE
Cpptraj generated mol2 file.
  235   246     2     0     0
SMALL
USER_CHARGES


@<TRIPOS>ATOM
      1 CAA        77.3533   57.7838   35.2911 a2         1 CLA     -0.055900
      2 CAB        76.9104   61.6020   44.2730 c8         1 CLA     -0.148500
      3 CAC        70.2774   57.4342   43.6151 a2         1 CLA     -0.012600
      4 CAD        73.1912   55.2109   36.3530 ck         1 CLA      0.398800
      5 NA         76.1215   58.4229   38.5976 ns         1 CLA     -0.225500
      6 CBA        78.5748   57.5650   34.4682 a2         1 CLA     -0.135000
      7 CBB        76.4465   60.8964   45.3819 c0         1 CLA     -0.395200
      8 CBC        70.5968   55.9172   43.6073 a3         1 CLA     -0.037700
      9 CBD        74.6274   55.7507   36.0601 a1         1 CLA     -0.053900
     10 NB         75.8152   60.0326   41.0274 nm         1 CLA     -0.295700
     11 OBD        72.6284   54.3383   35.6428 o2         1 CLA     -0.494600
     12 CGA        78.9902   56.0614   34.2632 c4         1 CLA      0.827000
     13 CGD        75.6579   54.5932   35.9536 c4         1 CLA      0.655300
     14 ND         73.3436   57.4537   39.1191 nm         1 CLA     -0.291600
     15 CED        75.7213   52.3428   36.7160 a3         1 CLA      0.005400
     16 CHA        74.8152   56.8593   37.1865 cs         1 CLA     -0.123800
     17 CHB        77.8693   59.7342   39.6578 aa         1 CLA     -0.291900
     18 CHC        74.2953   60.4217   42.9989 aa         1 CLA     -0.090400
     19 CHD        71.3993   57.3867   40.5937 aa         1 CLA     -0.052000
     20 CMA        79.5976   57.7023   38.0475 a3         1 CLA     -0.230700
     21 CMB        79.2641   61.2831   41.9515 a3         1 CLA     -0.180800
     22 CMC        72.0306   59.6111   45.1610 a3         1 CLA     -0.134000
     23 CMD        70.2557   55.4055   38.2081 a3         1 CLA     -0.141100
     24 C1         79.8158   54.0821   35.2735 a2         1 CLA      0.023000
     25 C1A        75.9838   57.5737   37.4832 ac         1 CLA     -0.015100
     26 C1B        77.1772   60.2473   40.8103 cr         1 CLA      0.054700
     27 C1C        73.1863   59.5793   42.6940 cn         1 CLA     -0.005600
     28 C1D        72.0940   56.9837   39.4306 ap         1 CLA     -0.047300
     29 O1A        78.8949   55.4408   33.2076 o2         1 CLA     -0.610800
     30 O1D        76.3807   54.3019   35.0202 o2         1 CLA     -0.558200
     31 C2         80.4254   53.6444   36.5851 c8         1 CLA     -0.325100
     32 C2A        77.3508   57.4205   36.7745 a1         1 CLA      0.098600
     33 C2B        77.7637   61.0497   41.9002 cb         1 CLA      0.088500
     34 C2C        72.1095   59.2624   43.6604 cb         1 CLA      0.053700
     35 C2D        71.5986   56.0844   38.3782 cb         1 CLA      0.058900
     36 O2A        79.6430   55.5261   35.3336 o1         1 CLA     -0.437200
     37 O2D        75.5422   53.7611   37.0371 o1         1 CLA     -0.357600
     38 C3         81.5075   52.9299   36.8469 c5         1 CLA      0.031200
     39 C3A        78.3806   58.4223   37.5262 a1         1 CLA      0.166800
     40 C3B        76.7608   61.1662   42.8768 cb         1 CLA      0.035000
     41 C3C        71.3641   58.2761   42.9600 cb         1 CLA     -0.089900
     42 C3D        72.7505   55.9508   37.5177 cb         1 CLA     -0.035900
     43 C4         81.3299   51.3987   36.9704 a3         1 CLA     -0.053300
     44 C4A        77.4504   58.8894   38.6786 ac         1 CLA      0.001800
     45 C4B        75.4795   60.6155   42.2701 cn         1 CLA     -0.020900
     46 C4C        71.9118   58.1296   41.6375 cr         1 CLA     -0.044400
     47 C4D        73.7332   56.7731   38.0228 c6         1 CLA     -0.046000
     48 C5         82.9341   53.3985   36.5813 a2         1 CLA     -0.070400
     49 C6         83.1822   54.9115   36.6138 a2         1 CLA      0.043900
     50 C7         83.2159   55.4457   38.1258 a2         1 CLA     -0.150000
     51 C8         83.6063   56.9639   38.4290 a1         1 CLA      0.064200
     52 C9         84.9259   57.2904   37.6849 a3         1 CLA     -0.259300
     53 C10        83.8428   57.4007   39.8918 a2         1 CLA     -0.071900
     54 C11        82.6015   57.1324   40.8065 a2         1 CLA      0.014500
     55 C12        82.4686   58.0860   41.9777 a2         1 CLA     -0.112100
     56 C13        83.6792   58.2142   42.9319 a1         1 CLA      0.089200
     57 C14        83.9680   56.8596   43.7549 a3         1 CLA     -0.239100
     58 C15        83.5092   59.4252   43.8819 a2         1 CLA     -0.102200
     59 C16        82.2577   59.4935   44.8035 a2         1 CLA      0.023900
     60 C17        82.5899   60.6425   45.7939 a2         1 CLA     -0.105700
     61 C18        81.5483   60.6769   46.9468 a1         1 CLA      0.206800
     62 C19        82.0734   61.5695   48.1008 a3         1 CLA     -0.280100
     63 C20        80.2345   61.3326   46.4823 a3         1 CLA     -0.280100
     64 NC         73.1038   58.7807   41.6416 nx         1 CLA     -0.309200
     65 MG         74.5634   58.8509   40.0710 mg         1 CLA      0.895000
     66 HMD3       70.4334   54.4877   37.6474 dc         1 CLA      0.064300
     67 HMD2       69.8522   55.0669   39.1210 dc         1 CLA      0.064300
     68 HMD1       69.6693   56.0751   37.6890 dc         1 CLA      0.064300
     69 HMC3       71.0288   59.3431   45.5642 dc         1 CLA      0.052100
     70 HMC2       72.8442   59.1393   45.6659 dc         1 CLA      0.052100
     71 HMC1       72.1720   60.6679   45.4062 dc         1 CLA      0.052100
     72 HMB3       79.5713   61.9109   41.1245 dc         1 CLA      0.063600
     73 HMB2       79.5065   61.6891   42.9389 dc         1 CLA      0.063600
     74 HMB1       79.8419   60.2991   41.7925 dc         1 CLA      0.063600
     75 HMA3       79.9563   57.0855   37.2156 dc         1 CLA      0.058300
     76 HMA2       80.2668   58.4438   38.4439 dc         1 CLA      0.058300
     77 HMA1       79.3642   57.0064   38.9007 dc         1 CLA      0.058300
     78 HED3       76.7517   52.0375   36.5045 dc         1 CLA      0.079300
     79 HED2       75.3974   51.8256   37.5728 dc         1 CLA      0.079300
     80 HED1       75.1189   52.2185   35.8052 dc         1 CLA      0.079300
     81 HBC3       71.5224   55.6973   44.1498 dc         1 CLA      0.016300
     82 HBC2       69.7427   55.3084   43.9195 dc         1 CLA      0.016300
     83 HBC1       70.7435   55.5849   42.6253 dc         1 CLA      0.016300
     84 HBB2       76.6088   61.2847   46.4079 da         1 CLA      0.183000
     85 HBB1       75.9421   59.9120   45.3875 da         1 CLA      0.183000
     86 HBA2       78.5064   57.9604   33.4545 dc         1 CLA      0.029400
     87 HBA1       79.4147   58.0339   34.9359 dc         1 CLA      0.029400
     88 HAC2       70.0822   57.7892   44.5869 dc         1 CLA      0.029300
     89 HAC1       69.2987   57.5779   43.2150 dc         1 CLA      0.029300
     90 HAA2       76.5606   57.2381   34.8633 dc         1 CLA      0.028700
     91 HAA1       77.1692   58.8167   35.2190 dc         1 CLA      0.028700
     92 H203       79.8102   60.7769   45.6842 dc         1 CLA      0.065600
     93 H202       79.4722   61.3648   47.2950 dc         1 CLA      0.065600
     94 H201       80.4539   62.3245   46.0833 dc         1 CLA      0.065600
     95 H193       82.3099   62.4634   47.6758 dc         1 CLA      0.065600
     96 H192       81.2409   61.6009   48.7984 dc         1 CLA      0.065600
     97 H191       82.9551   61.0677   48.4469 dc         1 CLA      0.065600
     98 H172       83.5630   60.4364   46.1917 dc         1 CLA      0.027600
     99 H171       82.4965   61.6988   45.3169 dc         1 CLA      0.027600
    100 H162       81.4315   59.6700   44.1397 dc         1 CLA      0.002900
    101 H161       82.0593   58.6404   45.4412 dc         1 CLA      0.002900
    102 H152       84.4832   59.5569   44.4283 dc         1 CLA      0.029100
    103 H151       83.4102   60.2979   43.2283 dc         1 CLA      0.029100
    104 H143       82.9595   56.6177   44.1165 dc         1 CLA      0.063600
    105 H142       84.4600   56.0886   43.1607 dc         1 CLA      0.063600
    106 H141       84.6073   56.9465   44.6294 dc         1 CLA      0.063600
    107 H122       82.1488   59.0788   41.6252 dc         1 CLA      0.032500
    108 H121       81.6173   57.8213   42.6005 dc         1 CLA      0.032500
    109 H112       81.6812   57.2663   40.1198 dc         1 CLA      0.006600
    110 H111       82.6028   56.0761   41.0735 dc         1 CLA      0.006600
    111 H102       84.7564   56.9333   40.3715 dc         1 CLA      0.024100
    112 H101       84.0366   58.4393   39.7516 dc         1 CLA      0.024100
    113 HHD        70.4258   57.0103   40.6803 da         1 CLA      0.174300
    114 HHC        74.2349   60.8290   44.0296 da         1 CLA      0.136800
    115 HHB        79.0053   59.9226   39.7206 da         1 CLA      0.138300
    116 HBD        74.5240   56.3056   35.1524 dc         1 CLA      0.107700
    117 HAB        77.3480   62.5476   44.6050 da         1 CLA      0.155200
    118 H93        85.6816   56.5233   37.8324 dc         1 CLA      0.069500
    119 H92        84.8972   57.3543   36.5863 dc         1 CLA      0.069500
    120 H91        85.3411   58.2371   37.9858 dc         1 CLA      0.069500
    121 H8         82.8391   57.6284   37.9387 dc         1 CLA      0.029300
    122 H72        82.2085   55.2193   38.5868 dc         1 CLA      0.044400
    123 H71        83.9091   54.8229   38.6401 dc         1 CLA      0.044400
    124 H62        84.1684   55.1087   36.2354 dc         1 CLA      0.015600
    125 H61        82.4815   55.5504   35.9976 dc         1 CLA      0.015600
    126 H52        83.6558   53.0021   37.3244 dc         1 CLA      0.033200
    127 H51        83.2145   52.9596   35.6499 dc         1 CLA      0.033200
    128 H43        81.8576   50.8728   36.2091 dc         1 CLA      0.037000
    129 H42        81.6989   51.0632   37.9820 dc         1 CLA      0.037000
    130 H41        80.2455   51.2490   36.9872 dc         1 CLA      0.037000
    131 H3A        78.6062   59.2614   36.8372 dc         1 CLA      0.041100
    132 H2A        77.6371   56.4021   36.8055 dc         1 CLA      0.083100
    133 H2         80.1313   54.2795   37.3681 da         1 CLA      0.180900
    134 H18        81.2864   59.6936   47.2833 dc         1 CLA     -0.003900
    135 H13        84.5877   58.3018   42.3684 dc         1 CLA      0.019700
    136 H12        78.8383   53.6641   35.2720 dc         1 CLA      0.120400
    137 H11        80.4095   53.7967   34.3495 dc         1 CLA      0.120400
    138 C1         67.4469   60.9876   50.8357 Z1         2 LUT      0.509236
    139 C2         66.0110   60.9148   51.3287 Z2         2 LUT     -0.434695
    140 C3         65.3524   62.3017   51.7509 Z3         2 LUT      0.437453
    141 O3         65.7109   62.7043   53.0517 S1         2 LUT     -0.547129
    142 C4         65.7781   63.4137   50.7429 Z4         2 LUT     -0.468603
    143 C5         66.5000   62.9952   49.5052 Z5         2 LUT      0.279246
    144 C6         67.2523   61.8994   49.5447 Z6         2 LUT     -0.305473
    145 C7         67.7767   61.3251   48.3257 Z7         2 LUT      0.069402
    146 C8         68.6739   61.9525   47.5562 Z8         2 LUT     -0.191631
    147 C9         69.0463   61.6479   46.1553 Z9         2 LUT      0.196698
    148 C10        69.9935   62.3402   45.4328 Y1         2 LUT     -0.208611
    149 C11        70.5380   62.3291   44.0498 Y2         2 LUT      0.030784
    150 C12        71.6413   63.0677   43.7948 Y3         2 LUT     -0.220316
    151 C13        72.4897   63.0467   42.5464 Y4         2 LUT      0.215937
    152 C14        73.5570   63.8275   42.6041 Y5         2 LUT     -0.185793
    153 C15        74.7784   63.8529   41.7388 Y6         2 LUT     -0.057835
    154 C16        67.9505   59.6074   50.6487 Y7         2 LUT     -0.405615
    155 C17        68.4565   61.7210   51.7910 Y7         2 LUT     -0.405615
    156 C18        66.0061   63.6505   48.2202 Y9         2 LUT     -0.369639
    157 C19        68.2485   60.6194   45.4718 W1         2 LUT     -0.333362
    158 C20        72.0636   62.4480   41.2302 W2         2 LUT     -0.323439
    159 C21        85.8355   64.6724   35.5213 Z1         2 LUT      0.406104
    160 C22        86.4508   64.4436   34.1301 Z2         2 LUT     -0.404965
    161 C23        86.6896   65.5839   33.1429 Z3         2 LUT      0.391255
    162 O23        87.4398   65.1900   31.9809 S1         2 LUT     -0.528210
    163 C24        85.2870   66.1379   32.9401 W6         2 LUT     -0.258361
    164 C25        84.2366   66.0995   33.8160 Z5         2 LUT      0.133546
    165 C26        84.4207   65.3745   35.1842 W8         2 LUT     -0.147008
    166 C27        83.8055   66.1451   36.3396 Z7         2 LUT      0.023843
    167 C28        82.7581   65.6707   37.0116 Z8         2 LUT     -0.216987
    168 C29        82.1311   66.2906   38.1119 Z9         2 LUT      0.206524
    169 C30        81.0826   65.6692   38.6096 Y1         2 LUT     -0.215556
    170 C31        80.3668   65.9015   39.7846 Y2         2 LUT      0.025142
    171 C32        79.2722   65.0915   40.1087 Y3         2 LUT     -0.212209
    172 C33        78.3409   65.3834   41.1880 Y4         2 LUT      0.240937
    173 C34        77.1285   64.6456   41.1766 Y5         2 LUT     -0.218862
    174 C35        75.9025   64.6337   41.9676 Y6         2 LUT     -0.023547
    175 C36        86.9235   65.4894   36.3413 Y7         2 LUT     -0.393485
    176 C37        85.7976   63.3223   36.3260 Y7         2 LUT     -0.393485
    177 C38        82.8985   66.6174   33.5176 Y9         2 LUT     -0.387526
    178 C39        82.7728   67.4828   38.6982 W1         2 LUT     -0.322618
    179 C40        78.8285   66.3656   42.2308 W2         2 LUT     -0.358472
    180 H403       78.6761   67.2970   41.8881 R7         2 LUT      0.097720
    181 H402       78.2614   66.1523   43.0874 R7         2 LUT      0.097720
    182 H401       79.8676   66.2354   42.4564 R7         2 LUT      0.097720
    183 H393       82.1492   67.9711   39.3908 R4         2 LUT      0.082505
    184 H392       83.7350   67.2157   39.0983 R4         2 LUT      0.082505
    185 H391       82.9464   68.2159   37.8870 R4         2 LUT      0.082505
    186 H383       82.7072   66.5284   32.4473 R1         2 LUT      0.104030
    187 H382       82.0976   66.1825   34.0612 R1         2 LUT      0.104030
    188 H381       82.8869   67.7352   33.7707 R1         2 LUT      0.104030
    189 H373       85.2568   63.3261   37.1903 T4         2 LUT      0.089537
    190 H372       85.3148   62.6551   35.6289 T4         2 LUT      0.089537
    191 H371       86.8210   62.8659   36.4594 T4         2 LUT      0.089537
    192 H363       87.8785   64.9509   36.3715 T4         2 LUT      0.089537
    193 H362       87.0455   66.5510   35.9681 T4         2 LUT      0.089537
    194 H361       86.6359   65.4187   37.3891 T4         2 LUT      0.089537
    195 H222       87.4085   63.9442   34.2080 U2         2 LUT      0.127376
    196 H221       85.7915   63.6150   33.7377 U2         2 LUT      0.127376
    197 H203       72.8782   62.2966   40.5370 R7         2 LUT      0.087068
    198 H202       71.5352   61.5156   41.3066 R7         2 LUT      0.087068
    199 H201       71.5232   63.2524   40.7747 R7         2 LUT      0.087068
    200 H193       68.7174   60.1910   44.5552 R4         2 LUT      0.089716
    201 H192       68.1771   59.7466   46.0840 R4         2 LUT      0.089716
    202 H191       67.2234   61.0109   45.2583 R4         2 LUT      0.089716
    203 H183       66.6610   64.5368   47.9021 R1         2 LUT      0.094572
    204 H182       65.9465   62.9523   47.3572 R1         2 LUT      0.094572
    205 H181       65.0002   63.9641   48.3102 R1         2 LUT      0.094572
    206 H173       68.2513   62.7967   51.8351 T4         2 LUT      0.093752
    207 H172       68.2277   61.2539   52.7641 T4         2 LUT      0.093752
    208 H171       69.5096   61.5253   51.4760 T4         2 LUT      0.093752
    209 H163       68.0007   58.9991   51.4870 T4         2 LUT      0.093752
    210 H162       67.1607   58.9934   50.1214 T4         2 LUT      0.093752
    211 H161       68.8531   59.4740   50.1019 T4         2 LUT      0.093752
    212 HO3        65.4453   62.1467   53.7986 Q1         2 LUT      0.300121
    213 H8         69.1236   62.8464   47.9174 U7         2 LUT      0.080784
    214 H7         67.2118   60.4720   48.0119 U6         2 LUT      0.042190
    215 H42        64.8522   64.0173   50.4953 U5         2 LUT      0.145166
    216 H41        66.4734   64.0167   51.3348 U5         2 LUT      0.145166
    217 H35        75.8017   65.3031   42.8767 T3         2 LUT      0.077919
    218 H34        76.9847   63.9172   40.3999 T2         2 LUT      0.073626
    219 H32        78.8902   64.4258   39.3130 T1         2 LUT      0.092510
    220 H31        80.4938   66.7560   40.4448 U9         2 LUT      0.070048
    221 H30        80.7790   64.7669   38.0361 U8         2 LUT      0.085442
    222 H3         64.2158   62.0710   51.8361 U3         2 LUT     -0.031596
    223 H28        82.3872   64.7173   36.6596 U7         2 LUT      0.084728
    224 H27        84.4905   66.9135   36.6754 U6         2 LUT      0.087291
    225 H26        83.7151   64.5840   34.9544 Q6         2 LUT      0.075325
    226 H24        85.1356   66.6370   31.9800 Q5         2 LUT      0.094482
    227 H23        87.2343   66.3608   33.5632 U3         2 LUT     -0.024869
    228 H22        65.3592   60.7178   50.5178 U2         2 LUT      0.127376
    229 H21        65.9123   60.1728   52.1329 U2         2 LUT      0.127376
    230 H15        74.8208   63.2537   40.8159 T3         2 LUT      0.093200
    231 H14        73.6009   64.4024   43.5395 T2         2 LUT      0.068865
    232 H12        71.9371   63.7259   44.6589 T1         2 LUT      0.095507
    233 H11        69.9884   61.6674   43.3429 U9         2 LUT      0.068930
    234 H10        70.4729   63.0097   46.0717 U8         2 LUT      0.083911
    235 H1         87.0171   64.5728   31.4028 Q1         2 LUT      0.297311
@<TRIPOS>BOND
    1     6     1 1
    2     7     2 1
    3     8     3 1
    4     9     4 1
    5    11     4 1
    6    12     6 1
    7    13     9 1
    8    16     9 1
    9    25     5 1
   10    25    16 1
   11    26    10 1
   12    26    17 1
   13    27    18 1
   14    28    14 1
   15    28    19 1
   16    29    12 1
   17    30    13 1
   18    31    24 1
   19    32     1 1
   20    32    25 1
   21    33    21 1
   22    33    26 1
   23    34    22 1
   24    34    27 1
   25    35    23 1
   26    35    28 1
   27    36    12 1
   28    36    24 1
   29    37    13 1
   30    37    15 1
   31    38    31 1
   32    39    20 1
   33    39    32 1
   34    40     2 1
   35    40    33 1
   36    41     3 1
   37    41    34 1
   38    42     4 1
   39    42    35 1
   40    43    38 1
   41    44     5 1
   42    44    17 1
   43    44    39 1
   44    45    10 1
   45    45    18 1
   46    45    40 1
   47    46    19 1
   48    46    41 1
   49    47    14 1
   50    47    16 1
   51    47    42 1
   52    48    38 1
   53    49    48 1
   54    50    49 1
   55    51    50 1
   56    52    51 1
   57    53    51 1
   58    54    53 1
   59    55    54 1
   60    56    55 1
   61    57    56 1
   62    58    56 1
   63    59    58 1
   64    60    59 1
   65    61    60 1
   66    62    61 1
   67    63    61 1
   68    64    27 1
   69    64    46 1
   70    65     5 1
   71    65    10 1
   72    65    64 1
   73    65    14 1
   74    66    23 1
   75    67    23 1
   76    68    23 1
   77    69    22 1
   78    70    22 1
   79    71    22 1
   80    72    21 1
   81    73    21 1
   82    74    21 1
   83    75    20 1
   84    76    20 1
   85    77    20 1
   86    78    15 1
   87    79    15 1
   88    80    15 1
   89    81     8 1
   90    82     8 1
   91    83     8 1
   92    84     7 1
   93    85     7 1
   94    86     6 1
   95    87     6 1
   96    88     3 1
   97    89     3 1
   98    90     1 1
   99    91     1 1
  100    92    63 1
  101    93    63 1
  102    94    63 1
  103    95    62 1
  104    96    62 1
  105    97    62 1
  106    98    60 1
  107    99    60 1
  108   100    59 1
  109   101    59 1
  110   102    58 1
  111   103    58 1
  112   104    57 1
  113   105    57 1
  114   106    57 1
  115   107    55 1
  116   108    55 1
  117   109    54 1
  118   110    54 1
  119   111    53 1
  120   112    53 1
  121   113    19 1
  122   114    18 1
  123   115    17 1
  124   116     9 1
  125   117     2 1
  126   118    52 1
  127   119    52 1
  128   120    52 1
  129   121    51 1
  130   122    50 1
  131   123    50 1
  132   124    49 1
  133   125    49 1
  134   126    48 1
  135   127    48 1
  136   128    43 1
  137   129    43 1
  138   130    43 1
  139   131    39 1
  140   132    32 1
  141   133    31 1
  142   134    61 1
  143   135    56 1
  144   136    24 1
  145   137    24 1
  146   139   138 1
  147   140   139 1
  148   141   140 1
  149   142   140 1
  150   143   142 1
  151   144   138 1
  152   144   143 1
  153   145   144 1
  154   146   145 1
  155   147   146 1
  156   148   147 1
  157   149   148 1
  158   150   149 1
  159   151   150 1
  160   152   151 1
  161   153   152 1
  162   154   138 1
  163   155   138 1
  164   156   143 1
  165   157   147 1
  166   158   151 1
  167   160   159 1
  168   161   160 1
  169   162   161 1
  170   163   161 1
  171   164   163 1
  172   165   159 1
  173   165   164 1
  174   166   165 1
  175   167   166 1
  176   168   167 1
  177   169   168 1
  178   170   169 1
  179   171   170 1
  180   172   171 1
  181   173   172 1
  182   174   153 1
  183   174   173 1
  184   175   159 1
  185   176   159 1
  186   177   164 1
  187   178   168 1
  188   179   172 1
  189   180   179 1
  190   181   179 1
  191   182   179 1
  192   183   178 1
  193   184   178 1
  194   185   178 1
  195   186   177 1
  196   187   177 1
  197   188   177 1
  198   189   176 1
  199   190   176 1
  200   191   176 1
  201   192   175 1
  202   193   175 1
  203   194   175 1
  204   195   160 1
  205   196   160 1
  206   197   158 1
  207   198   158 1
  208   199   158 1
  209   200   157 1
  210   201   157 1
  211   202   157 1
  212   203   156 1
  213   204   156 1
  214   205   156 1
  215   206   155 1
  216   207   155 1
  217   208   155 1
  218   209   154 1
  219   210   154 1
  220   211   154 1
  221   212   141 1
  222   213   146 1
  223   214   145 1
  224   215   142 1
  225   216   142 1
  226   217   174 1
  227   218   173 1
  228   219   171 1
  229   220   170 1
  230   221   169 1
  231   222   140 1
  232   223   167 1
  233   224   166 1
  234   225   165 1
  235   226   163 1
  236   227   161 1
  237   228   139 1
  238   229   139 1
  239   230   153 1
  240   231   152 1
  241   232   150 1
  242   233   149 1
  243   234   148 1
  244   235   162 1
  245   65    153 1
  246   65    174 1
@<TRIPOS>SUBSTRUCTURE
      1 CLA               1 ****               0 ****  **** 
      2 LUT             138 ****               0 ****  **** 
