@<TRIPOS>MOLECULE
Cpptraj generated mol2 file.
  235   246     2     0     0
SMALL
USER_CHARGES


@<TRIPOS>ATOM
      1 CAA        78.9837   58.8443   34.5036 a2         1 CLA     -0.055900
      2 CAB        79.3809   62.5222   43.6000 c8         1 CLA     -0.148500
      3 CAC        72.2452   58.7063   43.2525 a2         1 CLA     -0.012600
      4 CAD        74.2508   57.2360   35.4356 ck         1 CLA      0.398800
      5 NA         77.9963   59.1709   38.0419 ns         1 CLA     -0.225500
      6 CBA        80.0964   58.6574   33.5028 a2         1 CLA     -0.135000
      7 CBB        80.5070   62.1807   44.3570 c0         1 CLA     -0.395200
      8 CBC        72.6387   57.2850   43.6917 a3         1 CLA     -0.037700
      9 CBD        75.7723   57.5074   35.2033 a1         1 CLA     -0.053900
     10 NB         77.9191   60.8682   40.5604 nm         1 CLA     -0.295700
     11 OBD        73.4720   56.7205   34.6353 o2         1 CLA     -0.494600
     12 CGA        80.3069   57.2583   33.0366 c4         1 CLA      0.827000
     13 CGD        76.5685   56.3130   34.7666 c4         1 CLA      0.655300
     14 ND         75.1036   58.7471   38.5820 nm         1 CLA     -0.291600
     15 CED        77.3379   54.2068   35.2485 a3         1 CLA      0.005400
     16 CHA        76.4155   58.1206   36.5083 cs         1 CLA     -0.123800
     17 CHB        79.8634   60.4111   39.0143 aa         1 CLA     -0.291900
     18 CHC        76.6994   61.1134   42.7080 aa         1 CLA     -0.090400
     19 CHD        73.2689   58.6964   40.1537 aa         1 CLA     -0.052000
     20 CMA        81.2675   58.0690   37.3642 a3         1 CLA     -0.230700
     21 CMB        81.4143   62.2184   41.0618 a3         1 CLA     -0.180800
     22 CMC        74.4694   60.7058   44.7461 a3         1 CLA     -0.134000
     23 CMD        71.6601   57.3327   37.7494 a3         1 CLA     -0.141100
     24 C1         80.7826   54.9836   33.8955 a2         1 CLA      0.023000
     25 C1A        77.7526   58.5668   36.8128 ac         1 CLA     -0.015100
     26 C1B        79.2278   61.0309   40.1711 cr         1 CLA      0.054700
     27 C1C        75.4933   60.4188   42.4153 cn         1 CLA     -0.005600
     28 C1D        73.7771   58.3626   38.9201 ap         1 CLA     -0.047300
     29 O1A        80.0131   56.8076   31.9149 o2         1 CLA     -0.610800
     30 O1D        77.2896   56.2741   33.7533 o2         1 CLA     -0.558200
     31 C2         81.2098   54.4884   35.2558 c8         1 CLA     -0.325100
     32 C2A        79.0495   58.3183   35.9712 a1         1 CLA      0.098600
     33 C2B        79.9524   61.7602   41.1971 cb         1 CLA      0.088500
     34 C2C        74.4522   60.2225   43.3232 cb         1 CLA      0.053700
     35 C2D        73.1171   57.7482   37.8107 cb         1 CLA      0.058900
     36 O2A        80.6970   56.4488   34.1107 o1         1 CLA     -0.437200
     37 O2D        76.4125   55.2722   35.6230 o1         1 CLA     -0.357600
     38 C3         81.7334   53.2566   35.4868 c5         1 CLA      0.031200
     39 C3A        80.1437   58.9879   36.9199 a1         1 CLA      0.166800
     40 C3B        79.0872   61.9161   42.2687 cb         1 CLA      0.035000
     41 C3C        73.4386   59.3998   42.7082 cb         1 CLA     -0.089900
     42 C3D        74.0543   57.7126   36.8209 cb         1 CLA     -0.035900
     43 C4         81.0164   51.9879   35.7497 a3         1 CLA     -0.053300
     44 C4A        79.2889   59.6095   38.0418 ac         1 CLA      0.001800
     45 C4B        77.8005   61.3013   41.8653 cn         1 CLA     -0.020900
     46 C4C        73.9524   59.2992   41.2555 cr         1 CLA     -0.044400
     47 C4D        75.2494   58.1598   37.3481 c6         1 CLA     -0.046000
     48 C5         83.1926   53.0752   35.1349 a2         1 CLA     -0.070400
     49 C6         84.0485   54.2424   35.5802 a2         1 CLA      0.043900
     50 C7         84.2106   54.3118   37.1022 a2         1 CLA     -0.150000
     51 C8         85.0820   55.4623   37.7270 a1         1 CLA      0.064200
     52 C9         86.5107   55.5733   37.2334 a3         1 CLA     -0.259300
     53 C10        85.1344   55.6955   39.3152 a2         1 CLA     -0.071900
     54 C11        83.7753   56.2784   39.8479 a2         1 CLA      0.014500
     55 C12        83.8173   56.1023   41.3824 a2         1 CLA     -0.112100
     56 C13        82.4877   56.6219   42.1106 a1         1 CLA      0.089200
     57 C14        81.9825   58.0116   41.5396 a3         1 CLA     -0.239100
     58 C15        82.7370   56.5072   43.7146 a2         1 CLA     -0.102200
     59 C16        83.2922   57.7751   44.4374 a2         1 CLA      0.023900
     60 C17        83.4105   57.4509   45.9589 a2         1 CLA     -0.105700
     61 C18        84.1127   58.5326   46.8131 a1         1 CLA      0.206800
     62 C19        83.4266   59.9386   46.6946 a3         1 CLA     -0.280100
     63 C20        84.1898   58.1300   48.3145 a3         1 CLA     -0.280100
     64 NC         75.1930   59.9303   41.1707 nx         1 CLA     -0.309200
     65 MG         76.5151   59.7281   39.6006 mg         1 CLA      0.895000
     66 HMD3       71.1668   58.1015   37.2012 dc         1 CLA      0.064300
     67 HMD2       71.5165   56.4536   37.1706 dc         1 CLA      0.064300
     68 HMD1       71.1878   57.2146   38.7107 dc         1 CLA      0.064300
     69 HMC3       75.4750   60.5038   45.2249 dc         1 CLA      0.052100
     70 HMC2       74.3021   61.7820   44.6936 dc         1 CLA      0.052100
     71 HMC1       73.6500   60.2513   45.2948 dc         1 CLA      0.052100
     72 HMB3       82.1024   61.3726   41.1999 dc         1 CLA      0.063600
     73 HMB2       81.6233   62.5607   40.1025 dc         1 CLA      0.063600
     74 HMB1       81.6579   63.0168   41.8648 dc         1 CLA      0.063600
     75 HMA3       81.7274   57.6727   36.5023 dc         1 CLA      0.058300
     76 HMA2       81.9423   58.6465   38.0632 dc         1 CLA      0.058300
     77 HMA1       80.8629   57.2949   37.9652 dc         1 CLA      0.058300
     78 HED3       77.1674   53.3743   35.9477 dc         1 CLA      0.079300
     79 HED2       77.4076   53.7521   34.3189 dc         1 CLA      0.079300
     80 HED1       78.3270   54.6037   35.4621 dc         1 CLA      0.079300
     81 HBC3       73.2472   57.2999   44.6328 dc         1 CLA      0.016300
     82 HBC2       71.7363   56.6809   43.9248 dc         1 CLA      0.016300
     83 HBC1       73.0591   56.8354   42.7786 dc         1 CLA      0.016300
     84 HBB2       80.8118   62.5880   45.2972 da         1 CLA      0.183000
     85 HBB1       81.1832   61.5048   43.8040 da         1 CLA      0.183000
     86 HBA2       80.0650   59.2316   32.5924 dc         1 CLA      0.029400
     87 HBA1       80.9817   58.9117   34.0619 dc         1 CLA      0.029400
     88 HAC2       71.9544   59.3091   44.0899 dc         1 CLA      0.029300
     89 HAC1       71.3836   58.6722   42.5438 dc         1 CLA      0.029300
     90 HAA2       78.0254   58.4395   34.0791 dc         1 CLA      0.028700
     91 HAA1       78.8939   59.9525   34.5014 dc         1 CLA      0.028700
     92 H203       84.4411   59.0079   48.8358 dc         1 CLA      0.065600
     93 H202       83.1406   57.9186   48.5623 dc         1 CLA      0.065600
     94 H201       84.8030   57.2550   48.4975 dc         1 CLA      0.065600
     95 H193       83.5724   60.5666   47.6101 dc         1 CLA      0.065600
     96 H192       83.7089   60.5450   45.8657 dc         1 CLA      0.065600
     97 H191       82.3568   59.7011   46.6065 dc         1 CLA      0.065600
     98 H172       82.4884   57.2099   46.4165 dc         1 CLA      0.027600
     99 H171       83.9123   56.5073   46.0626 dc         1 CLA      0.027600
    100 H162       84.2267   58.1322   44.0564 dc         1 CLA      0.002900
    101 H161       82.5016   58.4882   44.3173 dc         1 CLA      0.002900
    102 H152       81.7768   56.2660   44.1452 dc         1 CLA      0.029100
    103 H151       83.5069   55.7273   43.9060 dc         1 CLA      0.029100
    104 H143       82.8186   58.7802   41.6799 dc         1 CLA      0.063600
    105 H142       81.7623   57.9186   40.4876 dc         1 CLA      0.063600
    106 H141       81.0496   58.3353   42.0309 dc         1 CLA      0.063600
    107 H122       83.8810   54.9982   41.6389 dc         1 CLA      0.032500
    108 H121       84.6512   56.6909   41.8387 dc         1 CLA      0.032500
    109 H112       83.7634   57.2618   39.4252 dc         1 CLA      0.006600
    110 H111       82.9254   55.7104   39.3565 dc         1 CLA      0.006600
    111 H102       85.2280   54.7120   39.7165 dc         1 CLA      0.024100
    112 H101       85.9321   56.2564   39.6265 dc         1 CLA      0.024100
    113 HHD        72.3200   58.2279   40.4493 da         1 CLA      0.174300
    114 HHC        76.8786   61.5512   43.7128 da         1 CLA      0.136800
    115 HHB        80.8648   60.6760   38.8723 da         1 CLA      0.138300
    116 HBD        75.9058   58.2735   34.4793 dc         1 CLA      0.107700
    117 HAB        78.7845   63.3495   44.0131 da         1 CLA      0.155200
    118 H93        87.1822   55.0448   37.9427 dc         1 CLA      0.069500
    119 H92        86.5963   55.1996   36.2082 dc         1 CLA      0.069500
    120 H91        86.7510   56.6789   37.1520 dc         1 CLA      0.069500
    121 H8         84.6584   56.4042   37.3371 dc         1 CLA      0.029300
    122 H72        83.2537   54.2618   37.6856 dc         1 CLA      0.044400
    123 H71        84.7763   53.3841   37.3614 dc         1 CLA      0.044400
    124 H62        85.0472   54.1274   35.1266 dc         1 CLA      0.015600
    125 H61        83.6686   55.2262   35.2389 dc         1 CLA      0.015600
    126 H52        83.5740   52.1687   35.6657 dc         1 CLA      0.033200
    127 H51        83.2068   52.9856   34.0340 dc         1 CLA      0.033200
    128 H43        79.9790   52.1826   35.9324 dc         1 CLA      0.037000
    129 H42        81.1159   51.2765   34.9137 dc         1 CLA      0.037000
    130 H41        81.5300   51.5694   36.6983 dc         1 CLA      0.037000
    131 H3A        80.6086   59.7457   36.3317 dc         1 CLA      0.041100
    132 H2A        79.2783   57.2134   35.9363 dc         1 CLA      0.083100
    133 H2         81.2629   55.0922   36.1981 da         1 CLA      0.180900
    134 H18        85.1197   58.8086   46.5667 dc         1 CLA     -0.003900
    135 H13        81.7992   55.8419   41.9094 dc         1 CLA      0.019700
    136 H12        79.8337   54.5062   33.6888 dc         1 CLA      0.120400
    137 H11        81.6972   54.7889   33.2981 dc         1 CLA      0.120400
    138 C1         68.5258   61.4508   49.7974 Z1         2 LUT      0.509236
    139 C2         68.2095   62.2338   51.1077 Z2         2 LUT     -0.434695
    140 C3         66.7188   62.5934   51.2410 Z3         2 LUT      0.437453
    141 O3         66.6060   63.3362   52.4790 S1         2 LUT     -0.547129
    142 C4         66.4190   63.5463   49.9848 Z4         2 LUT     -0.468603
    143 C5         67.0425   63.2157   48.7254 Z5         2 LUT      0.279246
    144 C6         67.9092   62.2379   48.5528 Z6         2 LUT     -0.305473
    145 C7         68.5738   62.0111   47.2381 Z7         2 LUT      0.069402
    146 C8         69.5676   62.7143   46.7647 Z8         2 LUT     -0.191631
    147 C9         70.2125   62.2786   45.4693 Z9         2 LUT      0.196698
    148 C10        71.3052   63.0553   44.9882 Y1         2 LUT     -0.208611
    149 C11        71.9395   63.1007   43.7574 Y2         2 LUT      0.030784
    150 C12        73.1545   63.7727   43.6628 Y3         2 LUT     -0.220316
    151 C13        74.0439   63.7062   42.5142 Y4         2 LUT      0.215937
    152 C14        75.3080   64.2619   42.5606 Y5         2 LUT     -0.185793
    153 C15        76.2865   64.3178   41.5415 Y6         2 LUT     -0.057835
    154 C16        67.7676   60.1346   49.7479 Y7         2 LUT     -0.405615
    155 C17        70.0533   61.1159   49.7831 Y7         2 LUT     -0.405615
    156 C18        66.6877   64.2224   47.6508 Y9         2 LUT     -0.369639
    157 C19        69.6462   61.0953   44.7466 W1         2 LUT     -0.333362
    158 C20        73.4291   63.1195   41.2491 W2         2 LUT     -0.323439
    159 C21        87.4424   65.4342   34.7742 Z1         2 LUT      0.406104
    160 C22        88.1583   64.9121   33.5314 Z2         2 LUT     -0.404965
    161 C23        88.2690   66.0528   32.4379 Z3         2 LUT      0.391255
    162 O23        89.1644   65.5577   31.4200 S1         2 LUT     -0.528210
    163 C24        86.9688   66.7776   32.2556 W6         2 LUT     -0.258361
    164 C25        85.8931   66.7838   33.1052 Z5         2 LUT      0.133546
    165 C26        85.9964   65.9263   34.3899 W8         2 LUT     -0.147008
    166 C27        85.2835   66.6166   35.5227 Z7         2 LUT      0.023843
    167 C28        84.2665   66.1317   36.2183 Z8         2 LUT     -0.216987
    168 C29        83.4969   66.5596   37.3946 Z9         2 LUT      0.206524
    169 C30        82.3146   65.8237   37.7804 Y1         2 LUT     -0.215556
    170 C31        81.4881   66.1295   38.9377 Y2         2 LUT      0.025142
    171 C32        80.2780   65.4762   39.3277 Y3         2 LUT     -0.212209
    172 C33        79.5462   65.6782   40.5376 Y4         2 LUT      0.240937
    173 C34        78.4775   64.8570   40.7326 Y5         2 LUT     -0.218862
    174 C35        77.5257   64.8471   41.7766 Y6         2 LUT     -0.023547
    175 C36        88.3147   66.6264   35.2454 Y7         2 LUT     -0.393485
    176 C37        87.5358   64.3479   35.8517 Y7         2 LUT     -0.393485
    177 C38        84.7298   67.6028   32.9087 Y9         2 LUT     -0.387526
    178 C39        83.9467   67.7935   38.1219 W1         2 LUT     -0.322618
    179 C40        79.9358   66.7457   41.5013 W2         2 LUT     -0.358472
    180 H403       81.0521   66.6096   41.7301 R7         2 LUT      0.097720
    181 H402       79.8470   67.6697   40.9868 R7         2 LUT      0.097720
    182 H401       79.3391   66.8428   42.3554 R7         2 LUT      0.097720
    183 H393       84.6580   68.4704   37.6126 R4         2 LUT      0.082505
    184 H392       83.0688   68.3803   38.4597 R4         2 LUT      0.082505
    185 H391       84.5255   67.6557   39.0804 R4         2 LUT      0.082505
    186 H383       83.8857   66.8961   32.7741 R1         2 LUT      0.104030
    187 H382       84.5852   68.1777   33.8206 R1         2 LUT      0.104030
    188 H381       84.7538   68.2712   32.0267 R1         2 LUT      0.104030
    189 H373       87.0959   64.5846   36.8451 T4         2 LUT      0.089537
    190 H372       87.2248   63.3455   35.5823 T4         2 LUT      0.089537
    191 H371       88.6175   64.1610   35.9594 T4         2 LUT      0.089537
    192 H363       88.1504   66.9155   36.2674 T4         2 LUT      0.089537
    193 H362       89.3981   66.4028   35.0256 T4         2 LUT      0.089537
    194 H361       88.1614   67.6379   34.8048 T4         2 LUT      0.089537
    195 H222       89.1564   64.5678   33.7803 U2         2 LUT      0.127376
    196 H221       87.5302   64.2075   33.0854 U2         2 LUT      0.127376
    197 H203       72.4623   63.6260   41.0577 R7         2 LUT      0.087068
    198 H202       74.0297   63.3299   40.3230 R7         2 LUT      0.087068
    199 H201       73.2672   62.0215   41.2612 R7         2 LUT      0.087068
    200 H193       69.9322   60.1936   45.1558 R4         2 LUT      0.089716
    201 H192       68.5631   61.1231   44.6078 R4         2 LUT      0.089716
    202 H191       69.9579   61.0973   43.6604 R4         2 LUT      0.089716
    203 H183       67.2250   65.1585   47.9147 R1         2 LUT      0.094572
    204 H182       66.9318   64.0415   46.6148 R1         2 LUT      0.094572
    205 H181       65.6192   64.3369   47.5573 R1         2 LUT      0.094572
    206 H173       70.3588   60.5112   50.6626 T4         2 LUT      0.093752
    207 H172       70.3923   60.4215   48.9614 T4         2 LUT      0.093752
    208 H171       70.7259   62.0343   49.7927 T4         2 LUT      0.093752
    209 H163       68.0225   59.5825   48.8231 T4         2 LUT      0.093752
    210 H162       68.1124   59.4745   50.5724 T4         2 LUT      0.093752
    211 H161       66.7745   60.1061   49.8954 T4         2 LUT      0.093752
    212 HO3        66.5468   62.8148   53.2643 Q1         2 LUT      0.300121
    213 H8         70.0056   63.5961   47.2675 U7         2 LUT      0.080784
    214 H7         68.0761   61.2266   46.7291 U6         2 LUT      0.042190
    215 H42        65.3106   63.6011   49.7958 U5         2 LUT      0.145166
    216 H41        66.7101   64.6150   50.2934 U5         2 LUT      0.145166
    217 H35        77.7352   65.2420   42.7410 T3         2 LUT      0.077919
    218 H34        78.3270   64.1529   39.8901 T2         2 LUT      0.073626
    219 H32        79.9435   64.7050   38.6209 T1         2 LUT      0.092510
    220 H31        81.9504   66.9198   39.5565 U9         2 LUT      0.070048
    221 H30        81.9665   65.0230   37.1514 U8         2 LUT      0.085442
    222 H3         66.1041   61.6949   51.3132 U3         2 LUT     -0.031596
    223 H28        83.8323   65.2313   35.6864 U7         2 LUT      0.084728
    224 H27        85.7579   67.5144   35.9224 U6         2 LUT      0.087291
    225 H26        85.4148   64.9914   34.2780 Q6         2 LUT      0.075325
    226 H24        86.9268   67.3898   31.3720 Q5         2 LUT      0.094482
    227 H23        88.9704   66.7815   32.8464 U3         2 LUT     -0.024869
    228 H22        68.6046   61.5547   51.8400 U2         2 LUT      0.127376
    229 H21        68.7857   63.1329   51.1640 U2         2 LUT      0.127376
    230 H15        76.1201   63.8159   40.6294 T3         2 LUT      0.093200
    231 H14        75.6193   64.7818   43.4996 T2         2 LUT      0.068865
    232 H12        73.5411   64.2694   44.5522 T1         2 LUT      0.095507
    233 H11        71.6522   62.4263   42.9740 U9         2 LUT      0.068930
    234 H10        71.6302   63.9245   45.6803 U8         2 LUT      0.083911
    235 H1         88.6280   65.1993   30.7152 Q1         2 LUT      0.297311
@<TRIPOS>BOND
    1     6     1 1
    2     7     2 1
    3     8     3 1
    4     9     4 1
    5    11     4 1
    6    12     6 1
    7    13     9 1
    8    16     9 1
    9    25     5 1
   10    25    16 1
   11    26    10 1
   12    26    17 1
   13    27    18 1
   14    28    14 1
   15    28    19 1
   16    29    12 1
   17    30    13 1
   18    31    24 1
   19    32     1 1
   20    32    25 1
   21    33    21 1
   22    33    26 1
   23    34    22 1
   24    34    27 1
   25    35    23 1
   26    35    28 1
   27    36    12 1
   28    36    24 1
   29    37    13 1
   30    37    15 1
   31    38    31 1
   32    39    20 1
   33    39    32 1
   34    40     2 1
   35    40    33 1
   36    41     3 1
   37    41    34 1
   38    42     4 1
   39    42    35 1
   40    43    38 1
   41    44     5 1
   42    44    17 1
   43    44    39 1
   44    45    10 1
   45    45    18 1
   46    45    40 1
   47    46    19 1
   48    46    41 1
   49    47    14 1
   50    47    16 1
   51    47    42 1
   52    48    38 1
   53    49    48 1
   54    50    49 1
   55    51    50 1
   56    52    51 1
   57    53    51 1
   58    54    53 1
   59    55    54 1
   60    56    55 1
   61    57    56 1
   62    58    56 1
   63    59    58 1
   64    60    59 1
   65    61    60 1
   66    62    61 1
   67    63    61 1
   68    64    27 1
   69    64    46 1
   70    65     5 1
   71    65    10 1
   72    65    64 1
   73    65    14 1
   74    66    23 1
   75    67    23 1
   76    68    23 1
   77    69    22 1
   78    70    22 1
   79    71    22 1
   80    72    21 1
   81    73    21 1
   82    74    21 1
   83    75    20 1
   84    76    20 1
   85    77    20 1
   86    78    15 1
   87    79    15 1
   88    80    15 1
   89    81     8 1
   90    82     8 1
   91    83     8 1
   92    84     7 1
   93    85     7 1
   94    86     6 1
   95    87     6 1
   96    88     3 1
   97    89     3 1
   98    90     1 1
   99    91     1 1
  100    92    63 1
  101    93    63 1
  102    94    63 1
  103    95    62 1
  104    96    62 1
  105    97    62 1
  106    98    60 1
  107    99    60 1
  108   100    59 1
  109   101    59 1
  110   102    58 1
  111   103    58 1
  112   104    57 1
  113   105    57 1
  114   106    57 1
  115   107    55 1
  116   108    55 1
  117   109    54 1
  118   110    54 1
  119   111    53 1
  120   112    53 1
  121   113    19 1
  122   114    18 1
  123   115    17 1
  124   116     9 1
  125   117     2 1
  126   118    52 1
  127   119    52 1
  128   120    52 1
  129   121    51 1
  130   122    50 1
  131   123    50 1
  132   124    49 1
  133   125    49 1
  134   126    48 1
  135   127    48 1
  136   128    43 1
  137   129    43 1
  138   130    43 1
  139   131    39 1
  140   132    32 1
  141   133    31 1
  142   134    61 1
  143   135    56 1
  144   136    24 1
  145   137    24 1
  146   139   138 1
  147   140   139 1
  148   141   140 1
  149   142   140 1
  150   143   142 1
  151   144   138 1
  152   144   143 1
  153   145   144 1
  154   146   145 1
  155   147   146 1
  156   148   147 1
  157   149   148 1
  158   150   149 1
  159   151   150 1
  160   152   151 1
  161   153   152 1
  162   154   138 1
  163   155   138 1
  164   156   143 1
  165   157   147 1
  166   158   151 1
  167   160   159 1
  168   161   160 1
  169   162   161 1
  170   163   161 1
  171   164   163 1
  172   165   159 1
  173   165   164 1
  174   166   165 1
  175   167   166 1
  176   168   167 1
  177   169   168 1
  178   170   169 1
  179   171   170 1
  180   172   171 1
  181   173   172 1
  182   174   153 1
  183   174   173 1
  184   175   159 1
  185   176   159 1
  186   177   164 1
  187   178   168 1
  188   179   172 1
  189   180   179 1
  190   181   179 1
  191   182   179 1
  192   183   178 1
  193   184   178 1
  194   185   178 1
  195   186   177 1
  196   187   177 1
  197   188   177 1
  198   189   176 1
  199   190   176 1
  200   191   176 1
  201   192   175 1
  202   193   175 1
  203   194   175 1
  204   195   160 1
  205   196   160 1
  206   197   158 1
  207   198   158 1
  208   199   158 1
  209   200   157 1
  210   201   157 1
  211   202   157 1
  212   203   156 1
  213   204   156 1
  214   205   156 1
  215   206   155 1
  216   207   155 1
  217   208   155 1
  218   209   154 1
  219   210   154 1
  220   211   154 1
  221   212   141 1
  222   213   146 1
  223   214   145 1
  224   215   142 1
  225   216   142 1
  226   217   174 1
  227   218   173 1
  228   219   171 1
  229   220   170 1
  230   221   169 1
  231   222   140 1
  232   223   167 1
  233   224   166 1
  234   225   165 1
  235   226   163 1
  236   227   161 1
  237   228   139 1
  238   229   139 1
  239   230   153 1
  240   231   152 1
  241   232   150 1
  242   233   149 1
  243   234   148 1
  244   235   162 1
  245   65    153 1
  246   65    174 1
@<TRIPOS>SUBSTRUCTURE
      1 CLA               1 ****               0 ****  **** 
      2 LUT             138 ****               0 ****  **** 
