@<TRIPOS>MOLECULE
Cpptraj generated mol2 file.
  235   246     2     0     0
SMALL
USER_CHARGES


@<TRIPOS>ATOM
      1 CAA        79.0580   57.6779   35.1134 a2         1 CLA     -0.055900
      2 CAB        78.3989   61.2024   44.3981 c8         1 CLA     -0.148500
      3 CAC        71.5137   57.1862   43.2014 a2         1 CLA     -0.012600
      4 CAD        75.0514   54.7569   36.3876 ck         1 CLA      0.398800
      5 NA         77.7113   58.2245   38.5247 ns         1 CLA     -0.225500
      6 CBA        80.3300   57.4596   34.3119 a2         1 CLA     -0.135000
      7 CBB        79.4766   60.9611   45.2697 c0         1 CLA     -0.395200
      8 CBC        71.5583   55.7536   43.6172 a3         1 CLA     -0.037700
      9 CBD        76.4078   55.4999   36.0588 a1         1 CLA     -0.053900
     10 NB         77.4122   59.6566   41.1690 nm         1 CLA     -0.295700
     11 OBD        74.5533   53.9225   35.6347 o2         1 CLA     -0.494600
     12 CGA        80.8579   56.0312   34.0874 c4         1 CLA      0.827000
     13 CGD        77.6168   54.5965   35.8803 c4         1 CLA      0.655300
     14 ND         74.9290   57.0906   38.9966 nm         1 CLA     -0.291600
     15 CED        78.8801   52.6813   36.7678 a3         1 CLA      0.005400
     16 CHA        76.5612   56.5378   37.1711 cs         1 CLA     -0.123800
     17 CHB        79.3871   59.5561   39.6919 aa         1 CLA     -0.291900
     18 CHC        75.9911   59.8827   43.1137 aa         1 CLA     -0.090400
     19 CHD        73.0128   56.9426   40.5568 aa         1 CLA     -0.052000
     20 CMA        81.2112   57.6601   38.0591 a3         1 CLA     -0.230700
     21 CMB        80.7277   61.2456   42.0311 a3         1 CLA     -0.180800
     22 CMC        73.4734   59.2197   44.9875 a3         1 CLA     -0.134000
     23 CMD        72.0378   54.7998   38.2657 a3         1 CLA     -0.141100
     24 C1         82.1656   54.2677   34.9880 a2         1 CLA      0.023000
     25 C1A        77.6668   57.4317   37.3624 ac         1 CLA     -0.015100
     26 C1B        78.6963   59.8693   40.9651 cr         1 CLA      0.054700
     27 C1C        74.8394   59.1412   42.7572 cn         1 CLA     -0.005600
     28 C1D        73.7040   56.5401   39.3555 ap         1 CLA     -0.047300
     29 O1A        80.6747   55.3384   33.0739 o2         1 CLA     -0.610800
     30 O1D        78.4182   54.7435   34.9464 o2         1 CLA     -0.558200
     31 C2         82.8228   53.9091   36.3461 c8         1 CLA     -0.325100
     32 C2A        79.0658   57.4241   36.6810 a1         1 CLA      0.098600
     33 C2B        79.3063   60.6387   41.9940 cb         1 CLA      0.088500
     34 C2C        73.6496   58.8065   43.6146 cb         1 CLA      0.053700
     35 C2D        73.3268   55.5642   38.3468 cb         1 CLA      0.058900
     36 O2A        81.6548   55.6161   35.1424 o1         1 CLA     -0.437200
     37 O2D        77.7734   53.6053   36.8969 o1         1 CLA     -0.357600
     38 C3         83.9311   53.1550   36.5484 c5         1 CLA      0.031200
     39 C3A        79.9881   58.3935   37.5058 a1         1 CLA      0.166800
     40 C3B        78.3184   60.6342   42.9921 cb         1 CLA      0.035000
     41 C3C        72.8456   57.8948   42.8591 cb         1 CLA     -0.089900
     42 C3D        74.4374   55.4910   37.5231 cb         1 CLA     -0.035900
     43 C4         83.8448   51.6813   36.7576 a3         1 CLA     -0.053300
     44 C4A        79.0044   58.7418   38.6330 ac         1 CLA      0.001800
     45 C4B        77.1661   60.0881   42.4326 cn         1 CLA     -0.020900
     46 C4C        73.5056   57.7265   41.5975 cr         1 CLA     -0.044400
     47 C4D        75.3351   56.4860   37.9030 c6         1 CLA     -0.046000
     48 C5         85.3506   53.7152   36.2839 a2         1 CLA     -0.070400
     49 C6         85.6364   55.1000   36.7351 a2         1 CLA      0.043900
     50 C7         85.4580   55.4232   38.2385 a2         1 CLA     -0.150000
     51 C8         86.3600   56.6144   38.6522 a1         1 CLA      0.064200
     52 C9         87.7812   56.2870   38.4259 a3         1 CLA     -0.259300
     53 C10        86.0132   57.0407   40.1035 a2         1 CLA     -0.071900
     54 C11        84.6666   57.6853   40.4482 a2         1 CLA      0.014500
     55 C12        84.7090   58.5544   41.6796 a2         1 CLA     -0.112100
     56 C13        85.1103   57.7855   43.0293 a1         1 CLA      0.089200
     57 C14        83.9938   56.7362   43.4732 a3         1 CLA     -0.239100
     58 C15        85.3880   58.8497   44.1793 a2         1 CLA     -0.102200
     59 C16        84.2347   59.7346   44.7112 a2         1 CLA      0.023900
     60 C17        84.5322   60.3276   46.0255 a2         1 CLA     -0.105700
     61 C18        83.4026   61.0994   46.7149 a1         1 CLA      0.206800
     62 C19        82.3113   60.0927   47.3420 a3         1 CLA     -0.280100
     63 C20        84.0403   62.0520   47.7298 a3         1 CLA     -0.280100
     64 NC         74.7126   58.4538   41.5594 nx         1 CLA     -0.309200
     65 MG         76.1322   58.4971   40.0458 mg         1 CLA      0.895000
     66 HMD3       71.3595   55.2112   37.5584 dc         1 CLA      0.064300
     67 HMD2       72.1520   53.7320   37.9935 dc         1 CLA      0.064300
     68 HMD1       71.4589   54.8328   39.1476 dc         1 CLA      0.064300
     69 HMC3       74.3300   59.7592   45.4494 dc         1 CLA      0.052100
     70 HMC2       72.5737   59.8859   45.0523 dc         1 CLA      0.052100
     71 HMC1       73.2462   58.2881   45.5334 dc         1 CLA      0.052100
     72 HMB3       81.0904   61.2767   41.0213 dc         1 CLA      0.063600
     73 HMB2       80.7146   62.2736   42.4743 dc         1 CLA      0.063600
     74 HMB1       81.3475   60.6181   42.7126 dc         1 CLA      0.063600
     75 HMA3       82.0045   58.4044   38.3039 dc         1 CLA      0.058300
     76 HMA2       80.9667   57.1390   38.9592 dc         1 CLA      0.058300
     77 HMA1       81.6300   56.8745   37.3730 dc         1 CLA      0.058300
     78 HED3       78.8786   52.2924   35.7481 dc         1 CLA      0.079300
     79 HED2       79.8452   53.1420   36.8713 dc         1 CLA      0.079300
     80 HED1       78.8258   51.9344   37.5321 dc         1 CLA      0.079300
     81 HBC3       72.2197   55.1359   42.9484 dc         1 CLA      0.016300
     82 HBC2       72.0050   55.7690   44.6068 dc         1 CLA      0.016300
     83 HBC1       70.5143   55.4634   43.6679 dc         1 CLA      0.016300
     84 HBB2       79.4451   61.4047   46.2311 da         1 CLA      0.183000
     85 HBB1       80.3269   60.3341   45.0630 da         1 CLA      0.183000
     86 HBA2       80.2462   57.9961   33.3130 dc         1 CLA      0.029400
     87 HBA1       81.1415   58.0471   34.8279 dc         1 CLA      0.029400
     88 HAC2       71.0535   57.6880   44.0670 dc         1 CLA      0.029300
     89 HAC1       70.8513   57.1123   42.3720 dc         1 CLA      0.029300
     90 HAA2       78.3837   57.1250   34.5827 dc         1 CLA      0.028700
     91 HAA1       78.8788   58.6894   34.9847 dc         1 CLA      0.028700
     92 H203       83.1724   62.6647   48.0918 dc         1 CLA      0.065600
     93 H202       84.5061   61.4421   48.5243 dc         1 CLA      0.065600
     94 H201       84.7805   62.8157   47.3911 dc         1 CLA      0.065600
     95 H193       81.4860   60.6668   47.8417 dc         1 CLA      0.065600
     96 H192       81.8617   59.5709   46.5258 dc         1 CLA      0.065600
     97 H191       82.7448   59.3516   48.0701 dc         1 CLA      0.065600
     98 H172       84.8960   59.5491   46.7098 dc         1 CLA      0.027600
     99 H171       85.4055   60.9410   45.8361 dc         1 CLA      0.027600
    100 H162       83.9506   60.6487   44.1281 dc         1 CLA      0.002900
    101 H161       83.3144   59.0997   44.8379 dc         1 CLA      0.002900
    102 H152       85.9379   58.3271   45.0134 dc         1 CLA      0.029100
    103 H151       86.1742   59.5736   43.7500 dc         1 CLA      0.029100
    104 H143       83.0210   57.2526   43.7789 dc         1 CLA      0.063600
    105 H142       83.7963   56.1080   42.6120 dc         1 CLA      0.063600
    106 H141       84.3010   56.1190   44.3223 dc         1 CLA      0.063600
    107 H122       85.4246   59.2946   41.5848 dc         1 CLA      0.032500
    108 H121       83.6972   58.9343   41.7718 dc         1 CLA      0.032500
    109 H112       84.4931   58.3562   39.5425 dc         1 CLA      0.006600
    110 H111       83.9702   56.8593   40.4996 dc         1 CLA      0.006600
    111 H102       85.9931   56.1776   40.7284 dc         1 CLA      0.024100
    112 H101       86.7656   57.8090   40.4577 dc         1 CLA      0.024100
    113 HHD        72.1467   56.3880   40.9100 da         1 CLA      0.174300
    114 HHC        75.9764   60.2811   44.1367 da         1 CLA      0.136800
    115 HHB        80.4439   59.8478   39.7034 da         1 CLA      0.138300
    116 HBD        76.4031   56.1157   35.2176 dc         1 CLA      0.107700
    117 HAB        77.5816   61.8393   44.7590 da         1 CLA      0.155200
    118 H93        88.1025   56.3443   37.3794 dc         1 CLA      0.069500
    119 H92        88.4131   56.9474   38.9829 dc         1 CLA      0.069500
    120 H91        87.8980   55.2374   38.7817 dc         1 CLA      0.069500
    121 H8         86.1525   57.5085   38.0724 dc         1 CLA      0.029300
    122 H72        84.3682   55.6894   38.3357 dc         1 CLA      0.044400
    123 H71        85.7014   54.4820   38.7409 dc         1 CLA      0.044400
    124 H62        86.6426   55.2801   36.4262 dc         1 CLA      0.015600
    125 H61        85.0427   55.8023   36.1179 dc         1 CLA      0.015600
    126 H52        86.1549   53.0944   36.5912 dc         1 CLA      0.033200
    127 H51        85.4334   53.8028   35.2078 dc         1 CLA      0.033200
    128 H43        84.5505   51.5103   37.5811 dc         1 CLA      0.037000
    129 H42        82.8283   51.4765   37.1287 dc         1 CLA      0.037000
    130 H41        83.9774   51.1687   35.8695 dc         1 CLA      0.037000
    131 H3A        80.2337   59.2526   36.8914 dc         1 CLA      0.041100
    132 H2A        79.3955   56.3727   36.7534 dc         1 CLA      0.083100
    133 H2         82.4810   54.4676   37.2943 da         1 CLA      0.180900
    134 H18        82.9079   61.8021   46.0261 dc         1 CLA     -0.003900
    135 H13        85.9771   57.2133   42.8495 dc         1 CLA      0.019700
    136 H12        81.3829   53.4906   34.9053 dc         1 CLA      0.120400
    137 H11        82.8051   54.2518   34.1491 dc         1 CLA      0.120400
    138 C1         68.3888   61.0618   50.8017 Z1         2 LUT      0.509236
    139 C2         66.9433   60.9741   51.4727 Z2         2 LUT     -0.434695
    140 C3         66.2321   62.3202   51.8307 Z3         2 LUT      0.437453
    141 O3         66.5671   62.7269   53.2083 S1         2 LUT     -0.547129
    142 C4         66.5136   63.4608   50.8760 Z4         2 LUT     -0.468603
    143 C5         67.1982   63.0240   49.6172 Z5         2 LUT      0.279246
    144 C6         68.1586   62.0716   49.5696 Z6         2 LUT     -0.305473
    145 C7         68.4992   61.5042   48.2754 Z7         2 LUT      0.069402
    146 C8         69.5571   61.8203   47.5589 Z8         2 LUT     -0.191631
    147 C9         69.8843   61.4320   46.1638 Z9         2 LUT      0.196698
    148 C10        70.9050   62.1239   45.5728 Y1         2 LUT     -0.208611
    149 C11        71.6002   62.1166   44.3135 Y2         2 LUT      0.030784
    150 C12        72.5663   62.9517   43.8983 Y3         2 LUT     -0.220316
    151 C13        73.2589   62.8110   42.6287 Y4         2 LUT      0.215937
    152 C14        74.4358   63.5518   42.4205 Y5         2 LUT     -0.185793
    153 C15        75.4659   63.3647   41.3816 Y6         2 LUT     -0.057835
    154 C16        68.9906   59.6935   50.4041 Y7         2 LUT     -0.405615
    155 C17        69.2301   61.7011   51.8870 Y7         2 LUT     -0.405615
    156 C18        66.6709   63.7593   48.3801 Y9         2 LUT     -0.369639
    157 C19        68.9777   60.5112   45.3780 W1         2 LUT     -0.333362
    158 C20        72.7190   61.7088   41.6392 W2         2 LUT     -0.323439
    159 C21        87.0590   64.8101   35.1758 Z1         2 LUT      0.406104
    160 C22        87.9678   64.4439   34.0259 Z2         2 LUT     -0.404965
    161 C23        88.2598   65.6403   33.0242 Z3         2 LUT      0.391255
    162 O23        89.2556   65.3112   32.0093 S1         2 LUT     -0.528210
    163 C24        86.9503   66.1747   32.5165 W6         2 LUT     -0.258361
    164 C25        85.7973   66.0624   33.2160 Z5         2 LUT      0.133546
    165 C26        85.6478   65.3350   34.5911 W8         2 LUT     -0.147008
    166 C27        84.8446   65.9214   35.6686 Z7         2 LUT      0.023843
    167 C28        83.9272   65.2589   36.4105 Z8         2 LUT     -0.216987
    168 C29        83.1225   65.6461   37.5540 Z9         2 LUT      0.206524
    169 C30        82.1019   64.8019   37.9407 Y1         2 LUT     -0.215556
    170 C31        81.0791   65.0357   38.9461 Y2         2 LUT      0.025142
    171 C32        79.9489   64.2479   39.3291 Y3         2 LUT     -0.212209
    172 C33        79.0226   64.5341   40.4693 Y4         2 LUT      0.240937
    173 C34        77.8513   63.8201   40.6510 Y5         2 LUT     -0.218862
    174 C35        76.6784   64.0223   41.4726 Y6         2 LUT     -0.023547
    175 C36        87.6879   65.9209   36.0334 Y7         2 LUT     -0.393485
    176 C37        86.9437   63.6299   36.0741 Y7         2 LUT     -0.393485
    177 C38        84.4678   66.5095   32.5638 Y9         2 LUT     -0.387526
    178 C39        83.3872   66.9848   38.2395 W1         2 LUT     -0.322618
    179 C40        79.3082   65.7334   41.3329 W2         2 LUT     -0.358472
    180 H403       80.2218   65.6115   41.9134 R7         2 LUT      0.097720
    181 H402       79.4047   66.6768   40.8295 R7         2 LUT      0.097720
    182 H401       78.4439   65.9138   41.9940 R7         2 LUT      0.097720
    183 H393       84.3178   67.1089   38.8563 R4         2 LUT      0.082505
    184 H392       83.4162   67.6858   37.4434 R4         2 LUT      0.082505
    185 H391       82.5478   67.3521   38.7981 R4         2 LUT      0.082505
    186 H383       83.6322   65.8783   32.8068 R1         2 LUT      0.104030
    187 H382       84.1811   67.5313   32.9251 R1         2 LUT      0.104030
    188 H381       84.5771   66.5939   31.4878 R1         2 LUT      0.104030
    189 H373       86.4183   62.8375   35.5315 T4         2 LUT      0.089537
    190 H372       87.9216   63.2752   36.3814 T4         2 LUT      0.089537
    191 H371       86.2789   63.8301   36.9359 T4         2 LUT      0.089537
    192 H363       88.7269   65.6464   36.2824 T4         2 LUT      0.089537
    193 H362       87.7775   66.9618   35.5794 T4         2 LUT      0.089537
    194 H361       87.1126   65.9584   36.9822 T4         2 LUT      0.089537
    195 H222       88.9427   64.0921   34.3284 U2         2 LUT      0.127376
    196 H221       87.5576   63.6400   33.4386 U2         2 LUT      0.127376
    197 H203       73.5099   61.4129   40.8948 R7         2 LUT      0.087068
    198 H202       72.5278   60.8779   42.2532 R7         2 LUT      0.087068
    199 H201       71.7073   61.9734   41.3129 R7         2 LUT      0.087068
    200 H193       69.2445   60.6450   44.3232 R4         2 LUT      0.089716
    201 H192       69.0702   59.4457   45.6117 R4         2 LUT      0.089716
    202 H191       67.9389   60.6574   45.5045 R4         2 LUT      0.089716
    203 H183       66.5429   64.7989   48.6000 R1         2 LUT      0.094572
    204 H182       67.3788   63.7249   47.5025 R1         2 LUT      0.094572
    205 H181       65.6546   63.4231   48.0147 R1         2 LUT      0.094572
    206 H173       68.9375   62.6300   52.1502 T4         2 LUT      0.093752
    207 H172       69.1870   61.1505   52.8175 T4         2 LUT      0.093752
    208 H171       70.2840   61.7665   51.5434 T4         2 LUT      0.093752
    209 H163       68.5910   59.2051   49.5057 T4         2 LUT      0.093752
    210 H162       70.0731   59.8701   50.0331 T4         2 LUT      0.093752
    211 H161       69.0703   58.8942   51.1700 T4         2 LUT      0.093752
    212 HO3        66.1447   62.1927   53.8930 Q1         2 LUT      0.300121
    213 H8         70.2422   62.5568   48.0191 U7         2 LUT      0.080784
    214 H7         67.6845   60.8260   47.9196 U6         2 LUT      0.042190
    215 H42        65.5714   63.9933   50.5831 U5         2 LUT      0.145166
    216 H41        67.0543   64.1242   51.4314 U5         2 LUT      0.145166
    217 H35        76.7516   64.7609   42.2548 T3         2 LUT      0.077919
    218 H34        77.7735   63.0373   39.8968 T2         2 LUT      0.073626
    219 H32        79.7051   63.3969   38.7287 T1         2 LUT      0.092510
    220 H31        81.0698   65.9580   39.5297 U9         2 LUT      0.070048
    221 H30        81.8455   63.9542   37.3371 U8         2 LUT      0.085442
    222 H3         65.1395   62.0270   51.8278 U3         2 LUT     -0.031596
    223 H28        83.7107   64.3616   36.0060 U7         2 LUT      0.084728
    224 H27        84.8978   67.0053   35.9063 U6         2 LUT      0.087291
    225 H26        85.0968   64.4143   34.3275 Q6         2 LUT      0.075325
    226 H24        86.8629   66.5715   31.5440 Q5         2 LUT      0.094482
    227 H23        88.6440   66.4348   33.6702 U3         2 LUT     -0.024869
    228 H22        66.2579   60.5315   50.7208 U2         2 LUT      0.127376
    229 H21        66.8114   60.3608   52.3940 U2         2 LUT      0.127376
    230 H15        75.3039   62.5519   40.6574 T3         2 LUT      0.093200
    231 H14        74.8519   64.1697   43.2497 T2         2 LUT      0.068865
    232 H12        72.9156   63.7001   44.6001 T1         2 LUT      0.095507
    233 H11        71.2318   61.2826   43.6849 U9         2 LUT      0.068930
    234 H10        71.3093   62.8591   46.2171 U8         2 LUT      0.083911
    235 H1         88.8929   64.6415   31.4050 Q1         2 LUT      0.297311
@<TRIPOS>BOND
    1     6     1 1
    2     7     2 1
    3     8     3 1
    4     9     4 1
    5    11     4 1
    6    12     6 1
    7    13     9 1
    8    16     9 1
    9    25     5 1
   10    25    16 1
   11    26    10 1
   12    26    17 1
   13    27    18 1
   14    28    14 1
   15    28    19 1
   16    29    12 1
   17    30    13 1
   18    31    24 1
   19    32     1 1
   20    32    25 1
   21    33    21 1
   22    33    26 1
   23    34    22 1
   24    34    27 1
   25    35    23 1
   26    35    28 1
   27    36    12 1
   28    36    24 1
   29    37    13 1
   30    37    15 1
   31    38    31 1
   32    39    20 1
   33    39    32 1
   34    40     2 1
   35    40    33 1
   36    41     3 1
   37    41    34 1
   38    42     4 1
   39    42    35 1
   40    43    38 1
   41    44     5 1
   42    44    17 1
   43    44    39 1
   44    45    10 1
   45    45    18 1
   46    45    40 1
   47    46    19 1
   48    46    41 1
   49    47    14 1
   50    47    16 1
   51    47    42 1
   52    48    38 1
   53    49    48 1
   54    50    49 1
   55    51    50 1
   56    52    51 1
   57    53    51 1
   58    54    53 1
   59    55    54 1
   60    56    55 1
   61    57    56 1
   62    58    56 1
   63    59    58 1
   64    60    59 1
   65    61    60 1
   66    62    61 1
   67    63    61 1
   68    64    27 1
   69    64    46 1
   70    65     5 1
   71    65    10 1
   72    65    64 1
   73    65    14 1
   74    66    23 1
   75    67    23 1
   76    68    23 1
   77    69    22 1
   78    70    22 1
   79    71    22 1
   80    72    21 1
   81    73    21 1
   82    74    21 1
   83    75    20 1
   84    76    20 1
   85    77    20 1
   86    78    15 1
   87    79    15 1
   88    80    15 1
   89    81     8 1
   90    82     8 1
   91    83     8 1
   92    84     7 1
   93    85     7 1
   94    86     6 1
   95    87     6 1
   96    88     3 1
   97    89     3 1
   98    90     1 1
   99    91     1 1
  100    92    63 1
  101    93    63 1
  102    94    63 1
  103    95    62 1
  104    96    62 1
  105    97    62 1
  106    98    60 1
  107    99    60 1
  108   100    59 1
  109   101    59 1
  110   102    58 1
  111   103    58 1
  112   104    57 1
  113   105    57 1
  114   106    57 1
  115   107    55 1
  116   108    55 1
  117   109    54 1
  118   110    54 1
  119   111    53 1
  120   112    53 1
  121   113    19 1
  122   114    18 1
  123   115    17 1
  124   116     9 1
  125   117     2 1
  126   118    52 1
  127   119    52 1
  128   120    52 1
  129   121    51 1
  130   122    50 1
  131   123    50 1
  132   124    49 1
  133   125    49 1
  134   126    48 1
  135   127    48 1
  136   128    43 1
  137   129    43 1
  138   130    43 1
  139   131    39 1
  140   132    32 1
  141   133    31 1
  142   134    61 1
  143   135    56 1
  144   136    24 1
  145   137    24 1
  146   139   138 1
  147   140   139 1
  148   141   140 1
  149   142   140 1
  150   143   142 1
  151   144   138 1
  152   144   143 1
  153   145   144 1
  154   146   145 1
  155   147   146 1
  156   148   147 1
  157   149   148 1
  158   150   149 1
  159   151   150 1
  160   152   151 1
  161   153   152 1
  162   154   138 1
  163   155   138 1
  164   156   143 1
  165   157   147 1
  166   158   151 1
  167   160   159 1
  168   161   160 1
  169   162   161 1
  170   163   161 1
  171   164   163 1
  172   165   159 1
  173   165   164 1
  174   166   165 1
  175   167   166 1
  176   168   167 1
  177   169   168 1
  178   170   169 1
  179   171   170 1
  180   172   171 1
  181   173   172 1
  182   174   153 1
  183   174   173 1
  184   175   159 1
  185   176   159 1
  186   177   164 1
  187   178   168 1
  188   179   172 1
  189   180   179 1
  190   181   179 1
  191   182   179 1
  192   183   178 1
  193   184   178 1
  194   185   178 1
  195   186   177 1
  196   187   177 1
  197   188   177 1
  198   189   176 1
  199   190   176 1
  200   191   176 1
  201   192   175 1
  202   193   175 1
  203   194   175 1
  204   195   160 1
  205   196   160 1
  206   197   158 1
  207   198   158 1
  208   199   158 1
  209   200   157 1
  210   201   157 1
  211   202   157 1
  212   203   156 1
  213   204   156 1
  214   205   156 1
  215   206   155 1
  216   207   155 1
  217   208   155 1
  218   209   154 1
  219   210   154 1
  220   211   154 1
  221   212   141 1
  222   213   146 1
  223   214   145 1
  224   215   142 1
  225   216   142 1
  226   217   174 1
  227   218   173 1
  228   219   171 1
  229   220   170 1
  230   221   169 1
  231   222   140 1
  232   223   167 1
  233   224   166 1
  234   225   165 1
  235   226   163 1
  236   227   161 1
  237   228   139 1
  238   229   139 1
  239   230   153 1
  240   231   152 1
  241   232   150 1
  242   233   149 1
  243   234   148 1
  244   235   162 1
  245   65    153 1
  246   65    174 1
@<TRIPOS>SUBSTRUCTURE
      1 CLA               1 ****               0 ****  **** 
      2 LUT             138 ****               0 ****  **** 
