@<TRIPOS>MOLECULE
Cpptraj generated mol2 file.
  235   246     2     0     0
SMALL
USER_CHARGES


@<TRIPOS>ATOM
      1 CAA        80.1088   57.8493   34.7350 a2         1 CLA     -0.055900
      2 CAB        80.1965   61.5701   43.7599 c8         1 CLA     -0.148500
      3 CAC        73.3056   57.5636   43.2622 a2         1 CLA     -0.012600
      4 CAD        75.9580   55.2508   35.8312 ck         1 CLA      0.398800
      5 NA         79.1332   58.2411   38.0691 ns         1 CLA     -0.225500
      6 CBA        81.2381   57.5751   33.6679 a2         1 CLA     -0.135000
      7 CBB        81.4410   61.5010   44.3786 c0         1 CLA     -0.395200
      8 CBC        73.4975   56.1252   43.4433 a3         1 CLA     -0.037700
      9 CBD        77.3920   55.7593   35.5633 a1         1 CLA     -0.053900
     10 NB         79.0950   59.7998   40.7049 nm         1 CLA     -0.295700
     11 OBD        75.3269   54.4669   35.1056 o2         1 CLA     -0.494600
     12 CGA        81.6739   56.1329   33.4405 c4         1 CLA      0.827000
     13 CGD        78.4193   54.6427   35.3249 c4         1 CLA      0.655300
     14 ND         76.2830   57.4669   38.5520 nm         1 CLA     -0.291600
     15 CED        79.4168   52.6623   36.2851 a3         1 CLA      0.005400
     16 CHA        77.7842   56.7446   36.6880 cs         1 CLA     -0.123800
     17 CHB        80.9993   59.5500   39.1914 aa         1 CLA     -0.291900
     18 CHC        77.6673   60.0401   42.6821 aa         1 CLA     -0.090400
     19 CHD        74.4320   57.3043   40.2857 aa         1 CLA     -0.052000
     20 CMA        82.4565   57.3866   37.5149 a3         1 CLA     -0.230700
     21 CMB        82.4388   61.2519   41.2640 a3         1 CLA     -0.180800
     22 CMC        75.3562   59.8770   44.6049 a3         1 CLA     -0.134000
     23 CMD        73.2714   55.3106   38.1666 a3         1 CLA     -0.141100
     24 C1         82.6655   54.2198   34.5283 a2         1 CLA      0.023000
     25 C1A        78.9402   57.4188   37.0068 ac         1 CLA     -0.015100
     26 C1B        80.3747   60.0763   40.3703 cr         1 CLA      0.054700
     27 C1C        76.4611   59.4170   42.3858 cn         1 CLA     -0.005600
     28 C1D        75.0588   56.9527   39.0109 ap         1 CLA     -0.047300
     29 O1A        81.5702   55.4611   32.4252 o2         1 CLA     -0.610800
     30 O1D        79.1201   54.4635   34.3344 o2         1 CLA     -0.558200
     31 C2         82.7805   53.6678   35.9207 c8         1 CLA     -0.325100
     32 C2A        80.2315   57.2815   36.1556 a1         1 CLA      0.098600
     33 C2B        81.0163   60.8044   41.4237 cb         1 CLA      0.088500
     34 C2C        75.3792   59.2432   43.2462 cb         1 CLA      0.053700
     35 C2D        74.5726   55.9483   38.0350 cb         1 CLA      0.058900
     36 O2A        82.2251   55.5921   34.5550 o1         1 CLA     -0.437200
     37 O2D        78.5586   53.8082   36.4491 o1         1 CLA     -0.357600
     38 C3         83.8013   52.8420   36.2469 c5         1 CLA      0.031200
     39 C3A        81.2419   58.1192   36.9865 a1         1 CLA      0.166800
     40 C3B        80.0326   61.0262   42.4026 cb         1 CLA      0.035000
     41 C3C        74.5322   58.2634   42.7018 cb         1 CLA     -0.089900
     42 C3D        75.6159   55.8789   37.0754 cb         1 CLA     -0.035900
     43 C4         83.7741   51.2814   36.3012 a3         1 CLA     -0.053300
     44 C4A        80.4700   58.6500   38.1865 ac         1 CLA      0.001800
     45 C4B        78.8336   60.2089   41.9556 cn         1 CLA     -0.020900
     46 C4C        74.9869   58.1338   41.3097 cr         1 CLA     -0.044400
     47 C4D        76.6257   56.7705   37.4638 c6         1 CLA     -0.046000
     48 C5         85.1238   53.3654   36.5068 a2         1 CLA     -0.070400
     49 C6         85.2715   54.2541   37.7425 a2         1 CLA      0.043900
     50 C7         86.7578   54.5333   38.0984 a2         1 CLA     -0.150000
     51 C8         86.9888   55.4826   39.3675 a1         1 CLA      0.064200
     52 C9         86.1746   56.7495   39.2294 a3         1 CLA     -0.259300
     53 C10        88.6026   55.8075   39.4912 a2         1 CLA     -0.071900
     54 C11        89.0203   56.3504   40.8623 a2         1 CLA      0.014500
     55 C12        89.0039   55.2830   42.0008 a2         1 CLA     -0.112100
     56 C13        90.0263   55.5756   43.2275 a1         1 CLA      0.089200
     57 C14        90.1084   54.2461   44.1362 a3         1 CLA     -0.239100
     58 C15        89.7179   56.7502   44.0582 a2         1 CLA     -0.102200
     59 C16        88.2628   57.0819   44.2605 a2         1 CLA      0.023900
     60 C17        88.2202   58.2682   45.2632 a2         1 CLA     -0.105700
     61 C18        86.8362   58.8796   45.6344 a1         1 CLA      0.206800
     62 C19        86.3497   59.9601   44.6392 a3         1 CLA     -0.280100
     63 C20        85.7282   57.8164   45.6989 a3         1 CLA     -0.280100
     64 NC         76.1740   58.8896   41.1197 nx         1 CLA     -0.309200
     65 MG         77.6139   58.7451   39.5245 mg         1 CLA      0.895000
     66 HMD3       73.3108   54.8209   39.1781 dc         1 CLA      0.064300
     67 HMD2       72.5316   56.1000   38.0779 dc         1 CLA      0.064300
     68 HMD1       73.1663   54.6091   37.3599 dc         1 CLA      0.064300
     69 HMC3       75.6076   60.9095   44.6492 dc         1 CLA      0.052100
     70 HMC2       74.4525   59.6912   45.0912 dc         1 CLA      0.052100
     71 HMC1       76.0232   59.4345   45.3750 dc         1 CLA      0.052100
     72 HMB3       82.7376   61.4184   40.2385 dc         1 CLA      0.063600
     73 HMB2       82.6450   62.1644   41.6911 dc         1 CLA      0.063600
     74 HMB1       83.1402   60.5295   41.7330 dc         1 CLA      0.063600
     75 HMA3       82.1222   56.6349   38.2119 dc         1 CLA      0.058300
     76 HMA2       82.9975   56.8672   36.7393 dc         1 CLA      0.058300
     77 HMA1       83.1669   58.1447   37.9473 dc         1 CLA      0.058300
     78 HED3       80.3239   53.0355   35.9174 dc         1 CLA      0.079300
     79 HED2       79.4330   52.2007   37.3202 dc         1 CLA      0.079300
     80 HED1       79.0206   51.9299   35.5767 dc         1 CLA      0.079300
     81 HBC3       72.5497   55.7229   43.8019 dc         1 CLA      0.016300
     82 HBC2       73.6952   55.5376   42.4965 dc         1 CLA      0.016300
     83 HBC1       74.3242   55.7351   44.0798 dc         1 CLA      0.016300
     84 HBB2       81.5092   61.7436   45.4167 da         1 CLA      0.183000
     85 HBB1       82.4356   61.2895   43.8561 da         1 CLA      0.183000
     86 HBA2       80.7993   57.9390   32.7316 dc         1 CLA      0.029400
     87 HBA1       82.1185   58.1404   33.9389 dc         1 CLA      0.029400
     88 HAC2       73.0175   58.0666   44.2297 dc         1 CLA      0.029300
     89 HAC1       72.4557   57.6792   42.5324 dc         1 CLA      0.029300
     90 HAA2       79.1956   57.4218   34.4142 dc         1 CLA      0.028700
     91 HAA1       79.9242   58.9349   34.8389 dc         1 CLA      0.028700
     92 H203       85.6093   57.3746   44.7047 dc         1 CLA      0.065600
     93 H202       85.9984   56.9933   46.3862 dc         1 CLA      0.065600
     94 H201       84.7563   58.2076   45.9722 dc         1 CLA      0.065600
     95 H193       85.3524   60.2648   44.8173 dc         1 CLA      0.065600
     96 H192       87.0885   60.7004   44.7617 dc         1 CLA      0.065600
     97 H191       86.4578   59.6238   43.6369 dc         1 CLA      0.065600
     98 H172       88.7563   57.9690   46.0977 dc         1 CLA      0.027600
     99 H171       88.7551   59.1464   44.8413 dc         1 CLA      0.027600
    100 H162       87.9560   57.6177   43.3493 dc         1 CLA      0.002900
    101 H161       87.5969   56.2498   44.4651 dc         1 CLA      0.002900
    102 H152       90.3299   56.6674   44.9635 dc         1 CLA      0.029100
    103 H151       89.9920   57.7228   43.5905 dc         1 CLA      0.029100
    104 H143       90.4119   53.4116   43.4935 dc         1 CLA      0.063600
    105 H142       90.9419   54.2667   44.8828 dc         1 CLA      0.063600
    106 H141       89.1625   54.0185   44.5777 dc         1 CLA      0.063600
    107 H122       88.0113   55.0496   42.3655 dc         1 CLA      0.032500
    108 H121       89.6039   54.5239   41.5418 dc         1 CLA      0.032500
    109 H112       90.0076   56.8808   40.9441 dc         1 CLA      0.006600
    110 H111       88.3041   57.1187   41.1063 dc         1 CLA      0.006600
    111 H102       89.1824   54.8832   39.2467 dc         1 CLA      0.024100
    112 H101       88.8585   56.5282   38.7816 dc         1 CLA      0.024100
    113 HHD        73.5554   56.7443   40.5628 da         1 CLA      0.174300
    114 HHC        77.6072   60.5229   43.6352 da         1 CLA      0.136800
    115 HHB        82.0878   59.7201   39.1841 da         1 CLA      0.138300
    116 HBD        77.4143   56.4300   34.6715 dc         1 CLA      0.107700
    117 HAB        79.2694   61.7353   44.4151 da         1 CLA      0.155200
    118 H93        85.1731   56.4753   39.0701 dc         1 CLA      0.069500
    119 H92        86.2696   57.2964   40.1655 dc         1 CLA      0.069500
    120 H91        86.6366   57.3022   38.3945 dc         1 CLA      0.069500
    121 H8         86.5661   55.0269   40.2869 dc         1 CLA      0.029300
    122 H72        87.3332   53.6203   38.1408 dc         1 CLA      0.044400
    123 H71        87.2770   55.2878   37.3632 dc         1 CLA      0.044400
    124 H62        84.6978   55.1320   37.6530 dc         1 CLA      0.015600
    125 H61        84.7960   53.6965   38.5513 dc         1 CLA      0.015600
    126 H52        85.8214   52.5046   36.5031 dc         1 CLA      0.033200
    127 H51        85.4506   54.0328   35.7395 dc         1 CLA      0.033200
    128 H43        82.7789   51.0504   35.9231 dc         1 CLA      0.037000
    129 H42        84.5148   50.8532   35.6185 dc         1 CLA      0.037000
    130 H41        83.9514   50.8170   37.2313 dc         1 CLA      0.037000
    131 H3A        81.4128   59.0574   36.4303 dc         1 CLA      0.041100
    132 H2A        80.5335   56.2321   36.0894 dc         1 CLA      0.083100
    133 H2         82.2156   54.0620   36.7424 da         1 CLA      0.180900
    134 H18        86.9208   59.3875   46.6047 dc         1 CLA     -0.003900
    135 H13        91.0456   55.6004   42.7831 dc         1 CLA      0.019700
    136 H12        82.0070   53.5722   33.9751 dc         1 CLA      0.120400
    137 H11        83.6416   54.0912   34.1065 dc         1 CLA      0.120400
    138 C1         69.9501   61.3758   50.0986 Z1         2 LUT      0.509236
    139 C2         68.5272   61.1792   50.7596 Z2         2 LUT     -0.434695
    140 C3         67.8045   62.4582   51.2290 Z3         2 LUT      0.437453
    141 O3         68.4052   62.7828   52.5176 S1         2 LUT     -0.547129
    142 C4         67.9818   63.5489   50.2332 Z4         2 LUT     -0.468603
    143 C5         68.8465   63.3730   49.0206 Z5         2 LUT      0.279246
    144 C6         69.8099   62.4161   48.9279 Z6         2 LUT     -0.305473
    145 C7         70.2736   62.0136   47.5529 Z7         2 LUT      0.069402
    146 C8         71.3991   62.6042   47.0335 Z8         2 LUT     -0.191631
    147 C9         71.9799   62.2282   45.7075 Z9         2 LUT      0.196698
    148 C10        73.1358   62.8823   45.2807 Y1         2 LUT     -0.208611
    149 C11        73.8099   62.7328   44.0347 Y2         2 LUT      0.030784
    150 C12        74.9506   63.3485   43.6576 Y3         2 LUT     -0.220316
    151 C13        75.7775   63.0647   42.5132 Y4         2 LUT      0.215937
    152 C14        76.9883   63.6748   42.5366 Y5         2 LUT     -0.185793
    153 C15        78.1132   63.4821   41.7095 Y6         2 LUT     -0.057835
    154 C16        70.5761   60.0020   49.8423 Y7         2 LUT     -0.405615
    155 C17        70.9889   62.1496   51.0627 Y7         2 LUT     -0.405615
    156 C18        68.2851   64.1543   47.9441 Y9         2 LUT     -0.369639
    157 C19        71.3299   61.1697   44.9035 W1         2 LUT     -0.333362
    158 C20        75.0226   62.6297   41.2447 W2         2 LUT     -0.323439
    159 C21        89.3471   64.9536   35.5834 Z1         2 LUT      0.406104
    160 C22        89.9253   64.1712   34.3857 Z2         2 LUT     -0.404965
    161 C23        90.0620   64.9118   33.0800 Z3         2 LUT      0.391255
    162 O23        90.3473   63.9094   32.0866 S1         2 LUT     -0.528210
    163 C24        88.7519   65.8017   32.8384 W6         2 LUT     -0.258361
    164 C25        87.7467   65.9204   33.7628 Z5         2 LUT      0.133546
    165 C26        87.8410   65.4306   35.1995 W8         2 LUT     -0.147008
    166 C27        87.1858   66.1544   36.3430 Z7         2 LUT      0.023843
    167 C28        85.9446   65.8444   36.7328 Z8         2 LUT     -0.216987
    168 C29        85.3297   66.4253   37.8549 Z9         2 LUT      0.206524
    169 C30        84.2948   65.7543   38.4290 Y1         2 LUT     -0.215556
    170 C31        83.4403   65.9322   39.5124 Y2         2 LUT      0.025142
    171 C32        82.3815   65.1262   39.8708 Y3         2 LUT     -0.212209
    172 C33        81.3943   65.3226   40.8447 Y4         2 LUT      0.240937
    173 C34        80.3794   64.3812   40.9895 Y5         2 LUT     -0.218862
    174 C35        79.2011   64.3787   41.7886 Y6         2 LUT     -0.023547
    175 C36        90.3117   66.1248   35.9346 Y7         2 LUT     -0.393485
    176 C37        89.3038   63.9694   36.7246 Y7         2 LUT     -0.393485
    177 C38        86.5190   66.8155   33.5062 Y9         2 LUT     -0.387526
    178 C39        85.8368   67.7186   38.2945 W1         2 LUT     -0.322618
    179 C40        81.4995   66.5207   41.7508 W2         2 LUT     -0.358472
    180 H403       81.2032   67.4576   41.3931 R7         2 LUT      0.097720
    181 H402       80.9647   66.4861   42.7157 R7         2 LUT      0.097720
    182 H401       82.5426   66.5328   42.1650 R7         2 LUT      0.097720
    183 H393       85.0257   68.2168   38.8231 R4         2 LUT      0.082505
    184 H392       86.6889   67.6021   38.9092 R4         2 LUT      0.082505
    185 H391       86.0409   68.4100   37.4640 R4         2 LUT      0.082505
    186 H383       85.6304   66.1937   33.6704 R1         2 LUT      0.104030
    187 H382       86.4058   67.6416   34.2066 R1         2 LUT      0.104030
    188 H381       86.4296   67.1870   32.5236 R1         2 LUT      0.104030
    189 H373       90.2425   63.3534   36.8058 T4         2 LUT      0.089537
    190 H372       88.9454   64.3975   37.6544 T4         2 LUT      0.089537
    191 H371       88.4937   63.2862   36.4351 T4         2 LUT      0.089537
    192 H363       90.3225   66.3707   37.0138 T4         2 LUT      0.089537
    193 H362       91.3611   65.7570   35.8588 T4         2 LUT      0.089537
    194 H361       90.3007   66.9878   35.2384 T4         2 LUT      0.089537
    195 H222       90.9232   63.7654   34.4851 U2         2 LUT      0.127376
    196 H221       89.2141   63.3467   34.1489 U2         2 LUT      0.127376
    197 H203       74.2310   63.3038   40.9407 R7         2 LUT      0.087068
    198 H202       75.6326   62.4650   40.3373 R7         2 LUT      0.087068
    199 H201       74.5494   61.6615   41.3250 R7         2 LUT      0.087068
    200 H193       70.2964   60.9815   45.0947 R4         2 LUT      0.089716
    201 H192       71.4250   61.2959   43.8402 R4         2 LUT      0.089716
    202 H191       71.9004   60.2623   45.1414 R4         2 LUT      0.089716
    203 H183       67.2148   64.0360   47.9835 R1         2 LUT      0.094572
    204 H182       68.5942   65.2372   48.0282 R1         2 LUT      0.094572
    205 H181       68.5976   63.7023   47.0389 R1         2 LUT      0.094572
    206 H173       70.6201   63.1513   51.4559 T4         2 LUT      0.093752
    207 H172       71.0563   61.5879   52.0036 T4         2 LUT      0.093752
    208 H171       71.9954   62.1757   50.6585 T4         2 LUT      0.093752
    209 H163       71.5551   60.2017   49.3884 T4         2 LUT      0.093752
    210 H162       70.7737   59.3649   50.6894 T4         2 LUT      0.093752
    211 H161       70.1004   59.4467   49.0802 T4         2 LUT      0.093752
    212 HO3        67.9076   62.4687   53.2253 Q1         2 LUT      0.300121
    213 H8         71.9147   63.3405   47.5933 U7         2 LUT      0.080784
    214 H7         69.7987   61.1568   47.1360 U6         2 LUT      0.042190
    215 H42        67.0020   64.0021   50.0998 U5         2 LUT      0.145166
    216 H41        68.4336   64.3581   50.7934 U5         2 LUT      0.145166
    217 H35        79.1769   65.1237   42.5831 T3         2 LUT      0.077919
    218 H34        80.3924   63.5507   40.2460 T2         2 LUT      0.073626
    219 H32        82.3120   64.1845   39.3801 T1         2 LUT      0.092510
    220 H31        83.4502   66.8487   40.0091 U9         2 LUT      0.070048
    221 H30        83.9188   64.7864   37.9158 U8         2 LUT      0.085442
    222 H3         66.7386   62.2146   51.2957 U3         2 LUT     -0.031596
    223 H28        85.3478   65.1542   36.2026 U7         2 LUT      0.084728
    224 H27        87.7824   66.8912   36.8134 U6         2 LUT      0.087291
    225 H26        87.3952   64.4585   34.9393 Q6         2 LUT      0.075325
    226 H24        88.6096   66.4371   31.9056 Q5         2 LUT      0.094482
    227 H23        90.9351   65.5849   33.1847 U3         2 LUT     -0.024869
    228 H22        67.9421   60.7989   49.9105 U2         2 LUT      0.127376
    229 H21        68.6092   60.4334   51.5065 U2         2 LUT      0.127376
    230 H15        77.9836   62.7642   40.9320 T3         2 LUT      0.093200
    231 H14        77.1792   64.2758   43.4136 T2         2 LUT      0.068865
    232 H12        75.3258   64.1311   44.3311 T1         2 LUT      0.095507
    233 H11        73.5723   61.8549   43.4737 U9         2 LUT      0.068930
    234 H10        73.5803   63.6538   45.9313 U8         2 LUT      0.083911
    235 H1         90.4877   64.2315   31.1608 Q1         2 LUT      0.297311
@<TRIPOS>BOND
    1     6     1 1
    2     7     2 1
    3     8     3 1
    4     9     4 1
    5    11     4 1
    6    12     6 1
    7    13     9 1
    8    16     9 1
    9    25     5 1
   10    25    16 1
   11    26    10 1
   12    26    17 1
   13    27    18 1
   14    28    14 1
   15    28    19 1
   16    29    12 1
   17    30    13 1
   18    31    24 1
   19    32     1 1
   20    32    25 1
   21    33    21 1
   22    33    26 1
   23    34    22 1
   24    34    27 1
   25    35    23 1
   26    35    28 1
   27    36    12 1
   28    36    24 1
   29    37    13 1
   30    37    15 1
   31    38    31 1
   32    39    20 1
   33    39    32 1
   34    40     2 1
   35    40    33 1
   36    41     3 1
   37    41    34 1
   38    42     4 1
   39    42    35 1
   40    43    38 1
   41    44     5 1
   42    44    17 1
   43    44    39 1
   44    45    10 1
   45    45    18 1
   46    45    40 1
   47    46    19 1
   48    46    41 1
   49    47    14 1
   50    47    16 1
   51    47    42 1
   52    48    38 1
   53    49    48 1
   54    50    49 1
   55    51    50 1
   56    52    51 1
   57    53    51 1
   58    54    53 1
   59    55    54 1
   60    56    55 1
   61    57    56 1
   62    58    56 1
   63    59    58 1
   64    60    59 1
   65    61    60 1
   66    62    61 1
   67    63    61 1
   68    64    27 1
   69    64    46 1
   70    65     5 1
   71    65    10 1
   72    65    64 1
   73    65    14 1
   74    66    23 1
   75    67    23 1
   76    68    23 1
   77    69    22 1
   78    70    22 1
   79    71    22 1
   80    72    21 1
   81    73    21 1
   82    74    21 1
   83    75    20 1
   84    76    20 1
   85    77    20 1
   86    78    15 1
   87    79    15 1
   88    80    15 1
   89    81     8 1
   90    82     8 1
   91    83     8 1
   92    84     7 1
   93    85     7 1
   94    86     6 1
   95    87     6 1
   96    88     3 1
   97    89     3 1
   98    90     1 1
   99    91     1 1
  100    92    63 1
  101    93    63 1
  102    94    63 1
  103    95    62 1
  104    96    62 1
  105    97    62 1
  106    98    60 1
  107    99    60 1
  108   100    59 1
  109   101    59 1
  110   102    58 1
  111   103    58 1
  112   104    57 1
  113   105    57 1
  114   106    57 1
  115   107    55 1
  116   108    55 1
  117   109    54 1
  118   110    54 1
  119   111    53 1
  120   112    53 1
  121   113    19 1
  122   114    18 1
  123   115    17 1
  124   116     9 1
  125   117     2 1
  126   118    52 1
  127   119    52 1
  128   120    52 1
  129   121    51 1
  130   122    50 1
  131   123    50 1
  132   124    49 1
  133   125    49 1
  134   126    48 1
  135   127    48 1
  136   128    43 1
  137   129    43 1
  138   130    43 1
  139   131    39 1
  140   132    32 1
  141   133    31 1
  142   134    61 1
  143   135    56 1
  144   136    24 1
  145   137    24 1
  146   139   138 1
  147   140   139 1
  148   141   140 1
  149   142   140 1
  150   143   142 1
  151   144   138 1
  152   144   143 1
  153   145   144 1
  154   146   145 1
  155   147   146 1
  156   148   147 1
  157   149   148 1
  158   150   149 1
  159   151   150 1
  160   152   151 1
  161   153   152 1
  162   154   138 1
  163   155   138 1
  164   156   143 1
  165   157   147 1
  166   158   151 1
  167   160   159 1
  168   161   160 1
  169   162   161 1
  170   163   161 1
  171   164   163 1
  172   165   159 1
  173   165   164 1
  174   166   165 1
  175   167   166 1
  176   168   167 1
  177   169   168 1
  178   170   169 1
  179   171   170 1
  180   172   171 1
  181   173   172 1
  182   174   153 1
  183   174   173 1
  184   175   159 1
  185   176   159 1
  186   177   164 1
  187   178   168 1
  188   179   172 1
  189   180   179 1
  190   181   179 1
  191   182   179 1
  192   183   178 1
  193   184   178 1
  194   185   178 1
  195   186   177 1
  196   187   177 1
  197   188   177 1
  198   189   176 1
  199   190   176 1
  200   191   176 1
  201   192   175 1
  202   193   175 1
  203   194   175 1
  204   195   160 1
  205   196   160 1
  206   197   158 1
  207   198   158 1
  208   199   158 1
  209   200   157 1
  210   201   157 1
  211   202   157 1
  212   203   156 1
  213   204   156 1
  214   205   156 1
  215   206   155 1
  216   207   155 1
  217   208   155 1
  218   209   154 1
  219   210   154 1
  220   211   154 1
  221   212   141 1
  222   213   146 1
  223   214   145 1
  224   215   142 1
  225   216   142 1
  226   217   174 1
  227   218   173 1
  228   219   171 1
  229   220   170 1
  230   221   169 1
  231   222   140 1
  232   223   167 1
  233   224   166 1
  234   225   165 1
  235   226   163 1
  236   227   161 1
  237   228   139 1
  238   229   139 1
  239   230   153 1
  240   231   152 1
  241   232   150 1
  242   233   149 1
  243   234   148 1
  244   235   162 1
  245   65    153 1
  246   65    174 1
@<TRIPOS>SUBSTRUCTURE
      1 CLA               1 ****               0 ****  **** 
      2 LUT             138 ****               0 ****  **** 
