@<TRIPOS>MOLECULE
Cpptraj generated mol2 file.
  235   246     2     0     0
SMALL
USER_CHARGES


@<TRIPOS>ATOM
      1 CAA        78.7164   59.1693   33.1793 a2         1 CLA     -0.055900
      2 CAB        78.9993   62.0509   42.5811 c8         1 CLA     -0.148500
      3 CAC        71.9202   58.2045   41.8642 a2         1 CLA     -0.012600
      4 CAD        74.5116   56.5743   34.3670 ck         1 CLA      0.398800
      5 NA         77.7347   59.4574   36.6397 ns         1 CLA     -0.225500
      6 CBA        79.9675   59.0940   32.3237 a2         1 CLA     -0.135000
      7 CBB        80.2049   61.9652   43.2041 c0         1 CLA     -0.395200
      8 CBC        71.9638   56.7149   42.0524 a3         1 CLA     -0.037700
      9 CBD        75.9976   57.1082   34.1523 a1         1 CLA     -0.053900
     10 NB         77.5571   60.7646   39.3142 nm         1 CLA     -0.295700
     11 OBD        73.9245   55.8674   33.5507 o2         1 CLA     -0.494600
     12 CGA        80.4099   57.7051   32.0259 c4         1 CLA      0.827000
     13 CGD        76.9376   56.0652   33.7050 c4         1 CLA      0.655300
     14 ND         74.9477   58.4488   37.3133 nm         1 CLA     -0.291600
     15 CED        77.3343   53.7378   34.0643 a3         1 CLA      0.005400
     16 CHA        76.3745   57.9474   35.3577 cs         1 CLA     -0.123800
     17 CHB        79.4072   60.9035   37.6333 aa         1 CLA     -0.291900
     18 CHC        76.4584   60.5239   41.4995 aa         1 CLA     -0.090400
     19 CHD        73.1058   58.1528   38.9443 aa         1 CLA     -0.052000
     20 CMA        81.1361   58.7836   36.1118 a3         1 CLA     -0.230700
     21 CMB        80.9865   62.1536   39.9213 a3         1 CLA     -0.180800
     22 CMC        74.2382   59.6827   43.6673 a3         1 CLA     -0.134000
     23 CMD        71.8826   56.3037   36.6800 a3         1 CLA     -0.141100
     24 C1         81.0084   55.6736   32.8986 a2         1 CLA      0.023000
     25 C1A        77.5527   58.6866   35.5291 ac         1 CLA     -0.015100
     26 C1B        78.7599   61.2157   38.8851 cr         1 CLA      0.054700
     27 C1C        75.2851   59.8523   41.2184 cn         1 CLA     -0.005600
     28 C1D        73.7246   57.9020   37.6880 ap         1 CLA     -0.047300
     29 O1A        80.1355   57.1458   30.9770 o2         1 CLA     -0.610800
     30 O1D        77.5369   55.9768   32.6058 o2         1 CLA     -0.558200
     31 C2         81.5517   55.1617   34.1771 c8         1 CLA     -0.325100
     32 C2A        78.8948   58.6135   34.6539 a1         1 CLA      0.098600
     33 C2B        79.5304   61.7689   39.9578 cb         1 CLA      0.088500
     34 C2C        74.1921   59.4775   42.1905 cb         1 CLA      0.053700
     35 C2D        73.2374   56.9866   36.7252 cb         1 CLA      0.058900
     36 O2A        81.0833   57.1236   33.0568 o1         1 CLA     -0.437200
     37 O2D        76.8735   55.0144   34.5987 o1         1 CLA     -0.357600
     38 C3         82.3526   54.0989   34.2824 c5         1 CLA      0.031200
     39 C3A        79.8620   59.5202   35.5143 a1         1 CLA      0.166800
     40 C3B        78.6852   61.7265   41.1120 cb         1 CLA      0.035000
     41 C3C        73.1745   58.8775   41.3886 cb         1 CLA     -0.089900
     42 C3D        74.1405   57.0259   35.7139 cb         1 CLA     -0.035900
     43 C4         81.9956   52.6459   34.6799 a3         1 CLA     -0.053300
     44 C4A        78.9397   60.0623   36.6184 ac         1 CLA      0.001800
     45 C4B        77.4472   61.0020   40.6702 cn         1 CLA     -0.020900
     46 C4C        73.7285   58.8306   40.0373 cr         1 CLA     -0.044400
     47 C4D        75.2500   57.8584   36.1569 c6         1 CLA     -0.046000
     48 C5         83.8594   54.3947   34.1518 a2         1 CLA     -0.070400
     49 C6         84.4015   55.7561   34.7069 a2         1 CLA      0.043900
     50 C7         84.5112   55.7816   36.2925 a2         1 CLA     -0.150000
     51 C8         84.8911   57.1110   37.0409 a1         1 CLA      0.064200
     52 C9         86.3425   57.5708   36.6566 a3         1 CLA     -0.259300
     53 C10        84.6713   57.0677   38.5855 a2         1 CLA     -0.071900
     54 C11        83.1281   56.9316   39.0011 a2         1 CLA      0.014500
     55 C12        83.0464   56.9443   40.5079 a2         1 CLA     -0.112100
     56 C13        81.6115   56.9958   41.0712 a1         1 CLA      0.089200
     57 C14        80.9522   58.2695   40.7223 a3         1 CLA     -0.239100
     58 C15        81.5801   56.4757   42.5236 a2         1 CLA     -0.102200
     59 C16        82.4742   57.2155   43.5346 a2         1 CLA      0.023900
     60 C17        82.2169   56.9353   44.9498 a2         1 CLA     -0.105700
     61 C18        83.1546   57.6786   45.9903 a1         1 CLA      0.206800
     62 C19        82.9578   59.2642   46.0961 a3         1 CLA     -0.280100
     63 C20        83.0393   56.9662   47.3316 a3         1 CLA     -0.280100
     64 NC         74.9186   59.5026   39.9873 nx         1 CLA     -0.309200
     65 MG         76.2991   59.6818   38.2451 mg         1 CLA      0.895000
     66 HMD3       71.1355   57.0708   36.4118 dc         1 CLA      0.064300
     67 HMD2       71.8413   55.4849   35.9622 dc         1 CLA      0.064300
     68 HMD1       71.5842   55.9111   37.6508 dc         1 CLA      0.064300
     69 HMC3       75.2592   59.5278   44.0487 dc         1 CLA      0.052100
     70 HMC2       73.8685   60.6662   43.9575 dc         1 CLA      0.052100
     71 HMC1       73.5523   58.9028   43.9719 dc         1 CLA      0.052100
     72 HMB3       81.3300   62.6057   39.0012 dc         1 CLA      0.063600
     73 HMB2       81.1086   62.8357   40.7956 dc         1 CLA      0.063600
     74 HMB1       81.6882   61.3884   40.1308 dc         1 CLA      0.063600
     75 HMA3       80.9030   57.7419   36.5190 dc         1 CLA      0.058300
     76 HMA2       81.7904   58.5446   35.3219 dc         1 CLA      0.058300
     77 HMA1       81.6341   59.4066   36.8176 dc         1 CLA      0.058300
     78 HED3       78.4478   53.7915   33.8507 dc         1 CLA      0.079300
     79 HED2       77.1680   53.0072   34.8984 dc         1 CLA      0.079300
     80 HED1       76.7244   53.5084   33.2117 dc         1 CLA      0.079300
     81 HBC3       72.7365   56.4766   42.7829 dc         1 CLA      0.016300
     82 HBC2       71.0725   56.2898   42.5018 dc         1 CLA      0.016300
     83 HBC1       72.1057   56.1647   41.1512 dc         1 CLA      0.016300
     84 HBB2       80.2810   62.2159   44.2255 da         1 CLA      0.183000
     85 HBB1       81.0539   61.5268   42.6526 da         1 CLA      0.183000
     86 HBA2       79.6742   59.4632   31.3079 dc         1 CLA      0.029400
     87 HBA1       80.7827   59.8018   32.6206 dc         1 CLA      0.029400
     88 HAC2       71.5751   58.6566   42.8681 dc         1 CLA      0.029300
     89 HAC1       71.1676   58.4931   41.1333 dc         1 CLA      0.029300
     90 HAA2       78.0185   58.5642   32.6529 dc         1 CLA      0.028700
     91 HAA1       78.3004   60.1830   33.2584 dc         1 CLA      0.028700
     92 H203       83.7675   57.4039   48.0420 dc         1 CLA      0.065600
     93 H202       82.0805   57.0912   47.7734 dc         1 CLA      0.065600
     94 H201       83.3656   55.9081   47.2756 dc         1 CLA      0.065600
     95 H193       81.9854   59.4385   45.7394 dc         1 CLA      0.065600
     96 H192       83.2389   59.6192   47.1158 dc         1 CLA      0.065600
     97 H191       83.5734   59.8365   45.4696 dc         1 CLA      0.065600
     98 H172       81.2267   57.1444   45.2185 dc         1 CLA      0.027600
     99 H171       82.3643   55.8411   44.9820 dc         1 CLA      0.027600
    100 H162       83.5190   56.9404   43.3210 dc         1 CLA      0.002900
    101 H161       82.3843   58.2579   43.4312 dc         1 CLA      0.002900
    102 H152       80.5597   56.5681   42.8277 dc         1 CLA      0.029100
    103 H151       81.8165   55.4431   42.5445 dc         1 CLA      0.029100
    104 H143       80.6373   58.2975   39.6788 dc         1 CLA      0.063600
    105 H142       80.0676   58.5193   41.2746 dc         1 CLA      0.063600
    106 H141       81.6261   59.2331   40.9234 dc         1 CLA      0.063600
    107 H122       83.4765   55.9456   40.8399 dc         1 CLA      0.032500
    108 H121       83.6664   57.7052   40.9152 dc         1 CLA      0.032500
    109 H112       82.5291   57.7802   38.5465 dc         1 CLA      0.006600
    110 H111       82.7077   55.9716   38.5922 dc         1 CLA      0.006600
    111 H102       85.1624   56.1509   38.9549 dc         1 CLA      0.024100
    112 H101       85.1401   57.9298   39.0402 dc         1 CLA      0.024100
    113 HHD        72.2056   57.6004   39.1218 da         1 CLA      0.174300
    114 HHC        76.6032   60.6426   42.5349 da         1 CLA      0.136800
    115 HHB        80.3479   61.3465   37.4308 da         1 CLA      0.138300
    116 HBD        75.9698   57.6901   33.2485 dc         1 CLA      0.107700
    117 HAB        78.2067   62.5224   43.1153 da         1 CLA      0.155200
    118 H93        86.4749   58.4703   37.1438 dc         1 CLA      0.069500
    119 H92        87.1493   56.8266   36.8031 dc         1 CLA      0.069500
    120 H91        86.3133   57.9883   35.6774 dc         1 CLA      0.069500
    121 H8         84.2642   57.9294   36.6908 dc         1 CLA      0.029300
    122 H72        83.4677   55.4751   36.5139 dc         1 CLA      0.044400
    123 H71        85.1097   54.9785   36.6513 dc         1 CLA      0.044400
    124 H62        85.3621   55.8822   34.2761 dc         1 CLA      0.015600
    125 H61        83.7653   56.6152   34.2888 dc         1 CLA      0.015600
    126 H52        84.3003   53.6453   34.8248 dc         1 CLA      0.033200
    127 H51        84.2393   54.2465   33.1159 dc         1 CLA      0.033200
    128 H43        82.4947   51.7751   34.1888 dc         1 CLA      0.037000
    129 H42        82.3407   52.6649   35.7747 dc         1 CLA      0.037000
    130 H41        80.8952   52.4969   34.6553 dc         1 CLA      0.037000
    131 H3A        80.1307   60.3427   34.9733 dc         1 CLA      0.041100
    132 H2A        79.2044   57.5999   34.6259 dc         1 CLA      0.083100
    133 H2         81.4189   55.7372   35.1229 da         1 CLA      0.180900
    134 H18        84.1618   57.5066   45.7388 dc         1 CLA     -0.003900
    135 H13        80.9604   56.2590   40.5680 dc         1 CLA      0.019700
    136 H12        79.9348   55.3435   32.9314 dc         1 CLA      0.120400
    137 H11        81.5818   55.3505   32.0518 dc         1 CLA      0.120400
    138 C1         68.4789   61.3958   49.3838 Z1         2 LUT      0.509236
    139 C2         67.3020   61.2705   50.3064 Z2         2 LUT     -0.434695
    140 C3         66.3541   62.4164   50.6686 Z3         2 LUT      0.437453
    141 O3         66.6078   62.9690   52.0028 S1         2 LUT     -0.547129
    142 C4         66.6500   63.6093   49.7605 Z4         2 LUT     -0.468603
    143 C5         67.3318   63.3423   48.4105 Z5         2 LUT      0.279246
    144 C6         68.1876   62.3453   48.2618 Z6         2 LUT     -0.305473
    145 C7         68.7359   61.9545   47.0253 Z7         2 LUT      0.069402
    146 C8         69.7558   62.5825   46.3961 Z8         2 LUT     -0.191631
    147 C9         70.3574   62.3392   45.1512 Z9         2 LUT      0.196698
    148 C10        71.3819   63.1700   44.7584 Y1         2 LUT     -0.208611
    149 C11        72.1415   63.2101   43.5585 Y2         2 LUT      0.030784
    150 C12        73.0979   64.0345   43.0682 Y3         2 LUT     -0.220316
    151 C13        73.8753   63.7502   41.9176 Y4         2 LUT      0.215937
    152 C14        75.0896   64.5062   41.7724 Y5         2 LUT     -0.185793
    153 C15        76.2145   64.5091   40.7763 Y6         2 LUT     -0.057835
    154 C16        68.9214   59.9457   49.1046 Y7         2 LUT     -0.405615
    155 C17        69.6123   62.0434   50.3143 Y7         2 LUT     -0.405615
    156 C18        67.0248   64.4073   47.3843 Y9         2 LUT     -0.369639
    157 C19        70.0151   61.0843   44.3212 W1         2 LUT     -0.333362
    158 C20        73.3744   62.6907   40.8511 W2         2 LUT     -0.323439
    159 C21        87.4693   66.0339   34.6390 Z1         2 LUT      0.406104
    160 C22        88.3199   65.7879   33.3920 Z2         2 LUT     -0.404965
    161 C23        88.5812   67.0078   32.5236 Z3         2 LUT      0.391255
    162 O23        89.3800   66.6454   31.3426 S1         2 LUT     -0.528210
    163 C24        87.2502   67.6860   32.2164 W6         2 LUT     -0.258361
    164 C25        86.1101   67.4747   32.8668 Z5         2 LUT      0.133546
    165 C26        86.0339   66.5744   34.1092 W8         2 LUT     -0.147008
    166 C27        85.1425   67.1770   35.2521 Z7         2 LUT      0.023843
    167 C28        84.1370   66.5920   35.8935 Z8         2 LUT     -0.216987
    168 C29        83.3688   67.1938   37.0446 Z9         2 LUT      0.206524
    169 C30        82.4884   66.3667   37.6089 Y1         2 LUT     -0.215556
    170 C31        81.6428   66.5732   38.7417 Y2         2 LUT      0.025142
    171 C32        80.4992   65.8590   38.8858 Y3         2 LUT     -0.212209
    172 C33        79.5710   66.0403   39.9320 Y4         2 LUT      0.240937
    173 C34        78.4407   65.2679   39.9191 Y5         2 LUT     -0.218862
    174 C35        77.3148   65.2582   40.8165 Y6         2 LUT     -0.023547
    175 C36        88.1247   67.0631   35.6102 Y7         2 LUT     -0.393485
    176 C37        87.5188   64.6141   35.4053 Y7         2 LUT     -0.393485
    177 C38        84.8858   68.0968   32.3423 Y9         2 LUT     -0.387526
    178 C39        83.7997   68.5025   37.6177 W1         2 LUT     -0.322618
    179 C40        80.0340   66.9382   41.0405 W2         2 LUT     -0.358472
    180 H403       79.7711   67.9909   40.9213 R7         2 LUT      0.097720
    181 H402       79.4264   66.7161   41.9372 R7         2 LUT      0.097720
    182 H401       81.0016   66.8366   41.4400 R7         2 LUT      0.097720
    183 H393       82.9552   68.8841   38.2338 R4         2 LUT      0.082505
    184 H392       84.5391   68.3479   38.3539 R4         2 LUT      0.082505
    185 H391       84.0936   69.2489   36.9520 R4         2 LUT      0.082505
    186 H383       85.0853   68.6301   31.3860 R1         2 LUT      0.104030
    187 H382       84.2160   67.2642   32.1278 R1         2 LUT      0.104030
    188 H381       84.4544   68.7567   33.1056 R1         2 LUT      0.104030
    189 H373       87.0125   64.8504   36.3816 T4         2 LUT      0.089537
    190 H372       86.9305   63.8316   34.9994 T4         2 LUT      0.089537
    191 H371       88.4831   64.1544   35.5814 T4         2 LUT      0.089537
    192 H363       89.1505   66.8865   35.9254 T4         2 LUT      0.089537
    193 H362       88.0806   68.0474   35.0283 T4         2 LUT      0.089537
    194 H361       87.5231   67.2416   36.5170 T4         2 LUT      0.089537
    195 H222       89.3095   65.4145   33.7178 U2         2 LUT      0.127376
    196 H221       87.9332   65.0882   32.7295 U2         2 LUT      0.127376
    197 H203       72.5726   63.1025   40.2078 R7         2 LUT      0.087068
    198 H202       74.2437   62.6221   40.1954 R7         2 LUT      0.087068
    199 H201       73.0789   61.7442   41.2789 R7         2 LUT      0.087068
    200 H193       69.3887   60.3284   44.7517 R4         2 LUT      0.089716
    201 H192       69.5417   61.4654   43.4098 R4         2 LUT      0.089716
    202 H191       70.8694   60.5255   43.9185 R4         2 LUT      0.089716
    203 H183       67.8883   65.0849   47.3402 R1         2 LUT      0.094572
    204 H182       67.0147   63.9498   46.3867 R1         2 LUT      0.094572
    205 H181       66.1165   64.9411   47.5989 R1         2 LUT      0.094572
    206 H173       69.2953   62.8563   50.9488 T4         2 LUT      0.093752
    207 H172       70.0686   61.4077   51.0002 T4         2 LUT      0.093752
    208 H171       70.4585   62.4614   49.6103 T4         2 LUT      0.093752
    209 H163       69.9481   59.8196   48.7836 T4         2 LUT      0.093752
    210 H162       68.8610   59.3261   49.9610 T4         2 LUT      0.093752
    211 H161       68.2583   59.5418   48.3268 T4         2 LUT      0.093752
    212 HO3        66.2299   62.3485   52.6497 Q1         2 LUT      0.300121
    213 H8         70.2208   63.4644   46.9595 U7         2 LUT      0.080784
    214 H7         68.2686   61.1121   46.5360 U6         2 LUT      0.042190
    215 H42        65.7200   64.1551   49.5657 U5         2 LUT      0.145166
    216 H41        67.3680   64.2100   50.3190 U5         2 LUT      0.145166
    217 H35        77.3393   65.9699   41.6821 T3         2 LUT      0.077919
    218 H34        78.2411   64.7144   38.9609 T2         2 LUT      0.073626
    219 H32        80.1857   65.1529   38.1780 T1         2 LUT      0.092510
    220 H31        81.9089   67.2998   39.5278 U9         2 LUT      0.070048
    221 H30        82.2859   65.4085   37.0908 U8         2 LUT      0.085442
    222 H3         65.2925   61.9683   50.6204 U3         2 LUT     -0.031596
    223 H28        83.8841   65.6407   35.4824 U7         2 LUT      0.084728
    224 H27        85.3108   68.1835   35.6185 U6         2 LUT      0.087291
    225 H26        85.3769   65.6722   33.8556 Q6         2 LUT      0.075325
    226 H24        87.1837   68.2980   31.3353 Q5         2 LUT      0.094482
    227 H23        89.1663   67.7436   33.0174 U3         2 LUT     -0.024869
    228 H22        66.5319   60.6143   49.8696 U2         2 LUT      0.127376
    229 H21        67.6496   60.8489   51.2111 U2         2 LUT      0.127376
    230 H15        76.2784   63.9595   39.8140 T3         2 LUT      0.093200
    231 H14        75.2322   65.2305   42.5888 T2         2 LUT      0.068865
    232 H12        73.3615   64.8017   43.8236 T1         2 LUT      0.095507
    233 H11        71.9015   62.2976   42.9433 U9         2 LUT      0.068930
    234 H10        71.4832   64.0805   45.3527 U8         2 LUT      0.083911
    235 H1         88.7873   66.1886   30.7173 Q1         2 LUT      0.297311
@<TRIPOS>BOND
    1     6     1 1
    2     7     2 1
    3     8     3 1
    4     9     4 1
    5    11     4 1
    6    12     6 1
    7    13     9 1
    8    16     9 1
    9    25     5 1
   10    25    16 1
   11    26    10 1
   12    26    17 1
   13    27    18 1
   14    28    14 1
   15    28    19 1
   16    29    12 1
   17    30    13 1
   18    31    24 1
   19    32     1 1
   20    32    25 1
   21    33    21 1
   22    33    26 1
   23    34    22 1
   24    34    27 1
   25    35    23 1
   26    35    28 1
   27    36    12 1
   28    36    24 1
   29    37    13 1
   30    37    15 1
   31    38    31 1
   32    39    20 1
   33    39    32 1
   34    40     2 1
   35    40    33 1
   36    41     3 1
   37    41    34 1
   38    42     4 1
   39    42    35 1
   40    43    38 1
   41    44     5 1
   42    44    17 1
   43    44    39 1
   44    45    10 1
   45    45    18 1
   46    45    40 1
   47    46    19 1
   48    46    41 1
   49    47    14 1
   50    47    16 1
   51    47    42 1
   52    48    38 1
   53    49    48 1
   54    50    49 1
   55    51    50 1
   56    52    51 1
   57    53    51 1
   58    54    53 1
   59    55    54 1
   60    56    55 1
   61    57    56 1
   62    58    56 1
   63    59    58 1
   64    60    59 1
   65    61    60 1
   66    62    61 1
   67    63    61 1
   68    64    27 1
   69    64    46 1
   70    65     5 1
   71    65    10 1
   72    65    64 1
   73    65    14 1
   74    66    23 1
   75    67    23 1
   76    68    23 1
   77    69    22 1
   78    70    22 1
   79    71    22 1
   80    72    21 1
   81    73    21 1
   82    74    21 1
   83    75    20 1
   84    76    20 1
   85    77    20 1
   86    78    15 1
   87    79    15 1
   88    80    15 1
   89    81     8 1
   90    82     8 1
   91    83     8 1
   92    84     7 1
   93    85     7 1
   94    86     6 1
   95    87     6 1
   96    88     3 1
   97    89     3 1
   98    90     1 1
   99    91     1 1
  100    92    63 1
  101    93    63 1
  102    94    63 1
  103    95    62 1
  104    96    62 1
  105    97    62 1
  106    98    60 1
  107    99    60 1
  108   100    59 1
  109   101    59 1
  110   102    58 1
  111   103    58 1
  112   104    57 1
  113   105    57 1
  114   106    57 1
  115   107    55 1
  116   108    55 1
  117   109    54 1
  118   110    54 1
  119   111    53 1
  120   112    53 1
  121   113    19 1
  122   114    18 1
  123   115    17 1
  124   116     9 1
  125   117     2 1
  126   118    52 1
  127   119    52 1
  128   120    52 1
  129   121    51 1
  130   122    50 1
  131   123    50 1
  132   124    49 1
  133   125    49 1
  134   126    48 1
  135   127    48 1
  136   128    43 1
  137   129    43 1
  138   130    43 1
  139   131    39 1
  140   132    32 1
  141   133    31 1
  142   134    61 1
  143   135    56 1
  144   136    24 1
  145   137    24 1
  146   139   138 1
  147   140   139 1
  148   141   140 1
  149   142   140 1
  150   143   142 1
  151   144   138 1
  152   144   143 1
  153   145   144 1
  154   146   145 1
  155   147   146 1
  156   148   147 1
  157   149   148 1
  158   150   149 1
  159   151   150 1
  160   152   151 1
  161   153   152 1
  162   154   138 1
  163   155   138 1
  164   156   143 1
  165   157   147 1
  166   158   151 1
  167   160   159 1
  168   161   160 1
  169   162   161 1
  170   163   161 1
  171   164   163 1
  172   165   159 1
  173   165   164 1
  174   166   165 1
  175   167   166 1
  176   168   167 1
  177   169   168 1
  178   170   169 1
  179   171   170 1
  180   172   171 1
  181   173   172 1
  182   174   153 1
  183   174   173 1
  184   175   159 1
  185   176   159 1
  186   177   164 1
  187   178   168 1
  188   179   172 1
  189   180   179 1
  190   181   179 1
  191   182   179 1
  192   183   178 1
  193   184   178 1
  194   185   178 1
  195   186   177 1
  196   187   177 1
  197   188   177 1
  198   189   176 1
  199   190   176 1
  200   191   176 1
  201   192   175 1
  202   193   175 1
  203   194   175 1
  204   195   160 1
  205   196   160 1
  206   197   158 1
  207   198   158 1
  208   199   158 1
  209   200   157 1
  210   201   157 1
  211   202   157 1
  212   203   156 1
  213   204   156 1
  214   205   156 1
  215   206   155 1
  216   207   155 1
  217   208   155 1
  218   209   154 1
  219   210   154 1
  220   211   154 1
  221   212   141 1
  222   213   146 1
  223   214   145 1
  224   215   142 1
  225   216   142 1
  226   217   174 1
  227   218   173 1
  228   219   171 1
  229   220   170 1
  230   221   169 1
  231   222   140 1
  232   223   167 1
  233   224   166 1
  234   225   165 1
  235   226   163 1
  236   227   161 1
  237   228   139 1
  238   229   139 1
  239   230   153 1
  240   231   152 1
  241   232   150 1
  242   233   149 1
  243   234   148 1
  244   235   162 1
  245   65    153 1
  246   65    174 1
@<TRIPOS>SUBSTRUCTURE
      1 CLA               1 ****               0 ****  **** 
      2 LUT             138 ****               0 ****  **** 
