@<TRIPOS>MOLECULE
Cpptraj generated mol2 file.
  235   246     2     0     0
SMALL
USER_CHARGES


@<TRIPOS>ATOM
      1 CAA        79.8853   57.6036   34.5406 a2         1 CLA     -0.055900
      2 CAB        80.0918   61.7298   43.2060 c8         1 CLA     -0.148500
      3 CAC        72.8053   58.1633   42.9287 a2         1 CLA     -0.012600
      4 CAD        75.3589   55.4041   35.6686 ck         1 CLA      0.398800
      5 NA         78.7532   58.1561   37.8122 ns         1 CLA     -0.225500
      6 CBA        81.1620   57.3677   33.6991 a2         1 CLA     -0.135000
      7 CBB        81.0924   62.6051   43.5647 c0         1 CLA     -0.395200
      8 CBC        73.1559   56.8365   43.5959 a3         1 CLA     -0.037700
      9 CBD        76.8276   55.8347   35.3221 a1         1 CLA     -0.053900
     10 NB         78.8020   59.7363   40.3121 nm         1 CLA     -0.295700
     11 OBD        74.6859   54.6085   35.0317 o2         1 CLA     -0.494600
     12 CGA        81.4853   55.8646   33.3624 c4         1 CLA      0.827000
     13 CGD        77.7132   54.7251   35.0059 c4         1 CLA      0.655300
     14 ND         75.8928   57.5649   38.4356 nm         1 CLA     -0.291600
     15 CED        78.9024   52.7943   35.8831 a3         1 CLA      0.005400
     16 CHA        77.2361   56.7893   36.3865 cs         1 CLA     -0.123800
     17 CHB        80.6700   59.3080   38.7389 aa         1 CLA     -0.291900
     18 CHC        77.4587   60.0782   42.4469 aa         1 CLA     -0.090400
     19 CHD        73.9853   57.5895   40.0559 aa         1 CLA     -0.052000
     20 CMA        81.8884   56.7249   37.7870 a3         1 CLA     -0.230700
     21 CMB        82.3019   60.9998   40.7735 a3         1 CLA     -0.180800
     22 CMC        75.0306   59.9799   44.5184 a3         1 CLA     -0.134000
     23 CMD        72.5719   55.8336   37.8758 a3         1 CLA     -0.141100
     24 C1         82.3365   53.8348   34.1351 a2         1 CLA      0.023000
     25 C1A        78.4823   57.3878   36.7063 ac         1 CLA     -0.015100
     26 C1B        80.1588   59.7706   40.0096 cr         1 CLA      0.054700
     27 C1C        76.1876   59.6184   42.1213 cn         1 CLA     -0.005600
     28 C1D        74.6165   57.2064   38.8252 ap         1 CLA     -0.047300
     29 O1A        81.2506   55.3272   32.2927 o2         1 CLA     -0.610800
     30 O1D        78.1729   54.5169   33.8761 o2         1 CLA     -0.558200
     31 C2         82.9623   53.2013   35.3721 c8         1 CLA     -0.325100
     32 C2A        79.8397   57.0063   35.9742 a1         1 CLA      0.098600
     33 C2B        80.8796   60.5717   40.9911 cb         1 CLA      0.088500
     34 C2C        74.9995   59.5412   43.0051 cb         1 CLA      0.053700
     35 C2D        73.9902   56.4073   37.8444 cb         1 CLA      0.058900
     36 O2A        82.0049   55.2072   34.4318 o1         1 CLA     -0.437200
     37 O2D        78.0046   53.9314   36.1512 o1         1 CLA     -0.357600
     38 C3         84.2385   52.7828   35.4748 c5         1 CLA      0.031200
     39 C3A        80.9028   57.6116   36.9618 a1         1 CLA      0.166800
     40 C3B        79.9502   60.8647   42.0241 cb         1 CLA      0.035000
     41 C3C        74.0477   58.7386   42.3089 cb         1 CLA     -0.089900
     42 C3D        75.0114   56.1218   36.9503 cb         1 CLA     -0.035900
     43 C4         84.6206   51.3498   35.2127 a3         1 CLA     -0.053300
     44 C4A        80.0788   58.4988   37.8245 ac         1 CLA      0.001800
     45 C4B        78.6695   60.1395   41.6415 cn         1 CLA     -0.020900
     46 C4C        74.6571   58.4391   41.0492 cr         1 CLA     -0.044400
     47 C4D        76.1650   56.8849   37.2947 c6         1 CLA     -0.046000
     48 C5         85.3837   53.6944   35.7460 a2         1 CLA     -0.070400
     49 C6         85.5141   54.1718   37.1494 a2         1 CLA      0.043900
     50 C7         86.9134   54.7700   37.5084 a2         1 CLA     -0.150000
     51 C8         87.1657   55.1496   38.9840 a1         1 CLA      0.064200
     52 C9         86.5738   56.5252   39.1558 a3         1 CLA     -0.259300
     53 C10        88.6749   55.0838   39.2877 a2         1 CLA     -0.071900
     54 C11        89.2304   55.5701   40.6649 a2         1 CLA      0.014500
     55 C12        88.6657   54.6704   41.7287 a2         1 CLA     -0.112100
     56 C13        89.5094   54.6626   43.0879 a1         1 CLA      0.089200
     57 C14        88.9327   53.6637   44.2475 a3         1 CLA     -0.239100
     58 C15        89.7434   56.1186   43.6031 a2         1 CLA     -0.102200
     59 C16        88.4267   56.9077   43.9200 a2         1 CLA      0.023900
     60 C17        88.7273   57.8621   45.0813 a2         1 CLA     -0.105700
     61 C18        87.5180   58.7786   45.4309 a1         1 CLA      0.206800
     62 C19        86.9526   59.5971   44.2029 a3         1 CLA     -0.280100
     63 C20        86.2285   57.9675   45.9523 a3         1 CLA     -0.280100
     64 NC         75.9263   58.9449   40.9634 nx         1 CLA     -0.309200
     65 MG         77.3141   58.7798   39.3015 mg         1 CLA      0.895000
     66 HMD3       72.0882   55.5006   38.7331 dc         1 CLA      0.064300
     67 HMD2       71.9137   56.6352   37.4953 dc         1 CLA      0.064300
     68 HMD1       72.5186   54.9958   37.3129 dc         1 CLA      0.064300
     69 HMC3       75.5941   59.2494   45.0603 dc         1 CLA      0.052100
     70 HMC2       75.3839   60.9247   44.8099 dc         1 CLA      0.052100
     71 HMC1       74.0791   59.8959   44.9208 dc         1 CLA      0.052100
     72 HMB3       82.3379   61.7884   40.0682 dc         1 CLA      0.063600
     73 HMB2       82.7926   61.2920   41.7415 dc         1 CLA      0.063600
     74 HMB1       82.9391   60.1964   40.4765 dc         1 CLA      0.063600
     75 HMA3       81.3078   56.3232   38.6636 dc         1 CLA      0.058300
     76 HMA2       82.2859   55.9287   37.1932 dc         1 CLA      0.058300
     77 HMA1       82.7268   57.2919   38.1522 dc         1 CLA      0.058300
     78 HED3       79.7163   52.8772   36.6146 dc         1 CLA      0.079300
     79 HED2       78.3041   51.8612   36.0444 dc         1 CLA      0.079300
     80 HED1       79.3851   52.7491   34.9119 dc         1 CLA      0.079300
     81 HBC3       73.7259   56.9113   44.5502 dc         1 CLA      0.016300
     82 HBC2       72.2906   56.4067   44.0205 dc         1 CLA      0.016300
     83 HBC1       73.6889   56.1649   42.9320 dc         1 CLA      0.016300
     84 HBB2       81.0752   63.3116   44.4445 da         1 CLA      0.183000
     85 HBB1       81.9403   62.7578   42.9355 da         1 CLA      0.183000
     86 HBA2       81.0566   57.9419   32.7623 dc         1 CLA      0.029400
     87 HBA1       81.9981   57.8581   34.1572 dc         1 CLA      0.029400
     88 HAC2       72.2829   58.8065   43.5647 dc         1 CLA      0.029300
     89 HAC1       72.1614   58.0629   42.0475 dc         1 CLA      0.029300
     90 HAA2       79.0804   57.2336   33.9586 dc         1 CLA      0.028700
     91 HAA1       79.8145   58.6695   34.6453 dc         1 CLA      0.028700
     92 H203       85.6141   57.4790   45.2221 dc         1 CLA      0.065600
     93 H202       86.5216   57.1619   46.5566 dc         1 CLA      0.065600
     94 H201       85.5100   58.6623   46.4252 dc         1 CLA      0.065600
     95 H193       86.2579   60.2986   44.5469 dc         1 CLA      0.065600
     96 H192       87.7030   60.2268   43.8112 dc         1 CLA      0.065600
     97 H191       86.5265   58.9652   43.4344 dc         1 CLA      0.065600
     98 H172       89.1279   57.2588   45.9021 dc         1 CLA      0.027600
     99 H171       89.5871   58.4658   44.7240 dc         1 CLA      0.027600
    100 H162       88.0574   57.4468   43.0318 dc         1 CLA      0.002900
    101 H161       87.6772   56.1589   44.1404 dc         1 CLA      0.002900
    102 H152       90.3468   56.0867   44.5131 dc         1 CLA      0.029100
    103 H151       90.2503   56.7833   42.9134 dc         1 CLA      0.029100
    104 H143       87.9454   53.9836   44.6499 dc         1 CLA      0.063600
    105 H142       88.8242   52.7073   43.8150 dc         1 CLA      0.063600
    106 H141       89.7637   53.5125   44.9420 dc         1 CLA      0.063600
    107 H122       87.5956   54.8295   41.8738 dc         1 CLA      0.032500
    108 H121       88.7135   53.6282   41.4685 dc         1 CLA      0.032500
    109 H112       90.3023   55.4133   40.5534 dc         1 CLA      0.006600
    110 H111       88.9773   56.6650   40.8748 dc         1 CLA      0.006600
    111 H102       88.8729   54.0985   39.2160 dc         1 CLA      0.024100
    112 H101       89.1800   55.7347   38.5707 dc         1 CLA      0.024100
    113 HHD        72.9786   57.3482   40.2504 da         1 CLA      0.174300
    114 HHC        77.5029   60.5397   43.4564 da         1 CLA      0.136800
    115 HHB        81.7135   59.5586   38.6358 da         1 CLA      0.138300
    116 HBD        76.5954   56.5121   34.4499 dc         1 CLA      0.107700
    117 HAB        79.2351   61.6979   43.8874 da         1 CLA      0.155200
    118 H93        85.5179   56.6201   38.8492 dc         1 CLA      0.069500
    119 H92        86.6061   56.8182   40.2390 dc         1 CLA      0.069500
    120 H91        87.2423   57.1417   38.5641 dc         1 CLA      0.069500
    121 H8         86.6846   54.3846   39.5475 dc         1 CLA      0.029300
    122 H72        87.6855   54.0779   37.2230 dc         1 CLA      0.044400
    123 H71        86.9781   55.6770   36.8809 dc         1 CLA      0.044400
    124 H62        84.7508   54.9736   37.2648 dc         1 CLA      0.015600
    125 H61        85.4882   53.3080   37.7885 dc         1 CLA      0.015600
    126 H52        86.2556   52.9850   35.7714 dc         1 CLA      0.033200
    127 H51        85.4558   54.4041   34.9984 dc         1 CLA      0.033200
    128 H43        85.2461   51.2831   34.3267 dc         1 CLA      0.037000
    129 H42        85.0099   50.8821   36.1263 dc         1 CLA      0.037000
    130 H41        83.6738   50.8242   35.0037 dc         1 CLA      0.037000
    131 H3A        81.5612   58.3163   36.3720 dc         1 CLA      0.041100
    132 H2A        79.9965   55.9070   36.1023 dc         1 CLA      0.083100
    133 H2         82.4660   53.1651   36.3701 da         1 CLA      0.180900
    134 H18        87.7802   59.4343   46.1928 dc         1 CLA     -0.003900
    135 H13        90.5225   54.3014   42.6869 dc         1 CLA      0.019700
    136 H12        81.4655   53.3087   33.7314 dc         1 CLA      0.120400
    137 H11        83.0881   53.6679   33.4145 dc         1 CLA      0.120400
    138 C1         69.5907   61.7644   50.3436 Z1         2 LUT      0.509236
    139 C2         68.3172   61.6004   51.1153 Z2         2 LUT     -0.434695
    140 C3         67.3836   62.8512   51.3687 Z3         2 LUT      0.437453
    141 O3         67.4692   63.2768   52.6763 S1         2 LUT     -0.547129
    142 C4         67.6864   64.0160   50.3512 Z4         2 LUT     -0.468603
    143 C5         68.3746   63.6274   49.0958 Z5         2 LUT      0.279246
    144 C6         69.2024   62.5667   49.0592 Z6         2 LUT     -0.305473
    145 C7         69.7132   62.0378   47.7910 Z7         2 LUT      0.069402
    146 C8         71.0060   61.9489   47.4416 Z8         2 LUT     -0.191631
    147 C9         71.4733   61.8002   46.0515 Z9         2 LUT      0.196698
    148 C10        72.6271   62.4818   45.6121 Y1         2 LUT     -0.208611
    149 C11        73.2427   62.4954   44.3170 Y2         2 LUT      0.030784
    150 C12        74.3618   63.1721   43.9996 Y3         2 LUT     -0.220316
    151 C13        75.1097   63.2387   42.7259 Y4         2 LUT      0.215937
    152 C14        76.4044   63.8020   42.8729 Y5         2 LUT     -0.185793
    153 C15        77.4437   63.9546   41.8832 Y6         2 LUT     -0.057835
    154 C16        70.2279   60.3753   50.1194 Y7         2 LUT     -0.405615
    155 C17        70.5131   62.5860   51.2749 Y7         2 LUT     -0.405615
    156 C18        67.9907   64.5109   47.8642 Y9         2 LUT     -0.369639
    157 C19        70.7509   60.8540   45.2248 W1         2 LUT     -0.333362
    158 C20        74.4188   62.8214   41.4588 W2         2 LUT     -0.323439
    159 C21        89.1434   64.2607   35.9065 Z1         2 LUT      0.406104
    160 C22        89.5693   63.6311   34.5592 Z2         2 LUT     -0.404965
    161 C23        89.2994   64.4045   33.3100 Z3         2 LUT      0.391255
    162 O23        89.1834   63.3541   32.3319 S1         2 LUT     -0.528210
    163 C24        87.9543   65.1806   33.4286 W6         2 LUT     -0.258361
    164 C25        87.1546   65.3011   34.4817 Z5         2 LUT      0.133546
    165 C26        87.6656   64.8336   35.9267 W8         2 LUT     -0.147008
    166 C27        87.2260   65.5629   37.2080 Z7         2 LUT      0.023843
    167 C28        85.8867   65.6903   37.4426 Z8         2 LUT     -0.216987
    168 C29        85.1959   66.0820   38.6288 Z9         2 LUT      0.206524
    169 C30        84.0194   65.5168   38.8861 Y1         2 LUT     -0.215556
    170 C31        83.1444   65.7420   40.0048 Y2         2 LUT      0.025142
    171 C32        81.9070   65.1359   40.1729 Y3         2 LUT     -0.212209
    172 C33        81.0470   65.1963   41.3883 Y4         2 LUT      0.240937
    173 C34        79.7104   64.6442   41.2855 Y5         2 LUT     -0.218862
    174 C35        78.6270   64.6178   42.2098 Y6         2 LUT     -0.023547
    175 C36        90.2643   65.3405   36.0295 Y7         2 LUT     -0.393485
    176 C37        89.3357   63.1573   36.9458 Y7         2 LUT     -0.393485
    177 C38        85.7765   65.9155   34.4017 Y9         2 LUT     -0.387526
    178 C39        85.8059   67.0870   39.5917 W1         2 LUT     -0.322618
    179 C40        81.2052   66.2553   42.4189 W2         2 LUT     -0.358472
    180 H403       82.0556   66.1250   43.1442 R7         2 LUT      0.097720
    181 H402       81.4600   67.2216   42.0016 R7         2 LUT      0.097720
    182 H401       80.2869   66.5914   42.8615 R7         2 LUT      0.097720
    183 H393       86.3128   66.5899   40.3789 R4         2 LUT      0.082505
    184 H392       86.5424   67.6748   39.1193 R4         2 LUT      0.082505
    185 H391       85.0283   67.6984   40.1532 R4         2 LUT      0.082505
    186 H383       85.6077   66.4298   33.4539 R1         2 LUT      0.104030
    187 H382       85.0689   65.1161   34.5242 R1         2 LUT      0.104030
    188 H381       85.6717   66.7598   35.1321 R1         2 LUT      0.104030
    189 H373       90.3915   62.7416   36.8713 T4         2 LUT      0.089537
    190 H372       89.1932   63.4343   38.0077 T4         2 LUT      0.089537
    191 H371       88.7142   62.2957   36.7411 T4         2 LUT      0.089537
    192 H363       90.1338   65.8536   36.9933 T4         2 LUT      0.089537
    193 H362       91.2964   64.9203   36.1889 T4         2 LUT      0.089537
    194 H361       90.3216   65.9529   35.1513 T4         2 LUT      0.089537
    195 H222       90.6261   63.1574   34.5259 U2         2 LUT      0.127376
    196 H221       88.9005   62.7313   34.4152 U2         2 LUT      0.127376
    197 H203       74.8069   63.3807   40.6143 R7         2 LUT      0.087068
    198 H202       74.5020   61.7405   41.1720 R7         2 LUT      0.087068
    199 H201       73.3413   62.9965   41.4624 R7         2 LUT      0.087068
    200 H193       71.1494   59.9128   45.1621 R4         2 LUT      0.089716
    201 H192       69.7716   60.6508   45.4893 R4         2 LUT      0.089716
    202 H191       70.7316   61.2308   44.2036 R4         2 LUT      0.089716
    203 H183       66.9546   64.9135   47.9874 R1         2 LUT      0.094572
    204 H182       68.6068   65.4193   47.8152 R1         2 LUT      0.094572
    205 H181       68.0178   64.0193   46.9208 R1         2 LUT      0.094572
    206 H173       70.2242   63.5745   51.3865 T4         2 LUT      0.093752
    207 H172       70.4969   62.1640   52.2318 T4         2 LUT      0.093752
    208 H171       71.4901   62.6645   50.8023 T4         2 LUT      0.093752
    209 H163       71.1991   60.3152   49.5954 T4         2 LUT      0.093752
    210 H162       70.3179   59.7811   51.0740 T4         2 LUT      0.093752
    211 H161       69.5392   59.8392   49.4520 T4         2 LUT      0.093752
    212 HO3        67.0187   62.6318   53.2594 Q1         2 LUT      0.300121
    213 H8         71.7181   62.3411   48.1554 U7         2 LUT      0.080784
    214 H7         68.9513   61.9980   47.0214 U6         2 LUT      0.042190
    215 H42        66.7537   64.4490   50.1437 U5         2 LUT      0.145166
    216 H41        68.2531   64.7811   50.9342 U5         2 LUT      0.145166
    217 H35        78.7566   65.0199   43.2230 T3         2 LUT      0.077919
    218 H34        79.5202   64.1419   40.3072 T2         2 LUT      0.073626
    219 H32        81.5460   64.5645   39.3494 T1         2 LUT      0.092510
    220 H31        83.3408   66.2755   40.9507 U9         2 LUT      0.070048
    221 H30        83.6305   64.8993   38.0584 U8         2 LUT      0.085442
    222 H3         66.3594   62.4708   51.1482 U3         2 LUT     -0.031596
    223 H28        85.2413   65.2348   36.7275 U7         2 LUT      0.084728
    224 H27        87.8621   65.9112   38.0374 U6         2 LUT      0.087291
    225 H26        87.2307   63.8569   35.9403 Q6         2 LUT      0.075325
    226 H24        87.5721   65.6157   32.5473 Q5         2 LUT      0.094482
    227 H23        90.0881   65.1327   33.1657 U3         2 LUT     -0.024869
    228 H22        67.7592   60.8973   50.6002 U2         2 LUT      0.127376
    229 H21        68.5698   61.1418   52.0815 U2         2 LUT      0.127376
    230 H15        77.3199   63.4404   40.9003 T3         2 LUT      0.093200
    231 H14        76.6839   64.1379   43.8818 T2         2 LUT      0.068865
    232 H12        74.8619   63.5996   44.7942 T1         2 LUT      0.095507
    233 H11        72.7576   61.8435   43.5647 U9         2 LUT      0.068930
    234 H10        73.0689   63.0219   46.4487 U8         2 LUT      0.083911
    235 H1         89.5985   63.7110   31.5156 Q1         2 LUT      0.297311
@<TRIPOS>BOND
    1     6     1 1
    2     7     2 1
    3     8     3 1
    4     9     4 1
    5    11     4 1
    6    12     6 1
    7    13     9 1
    8    16     9 1
    9    25     5 1
   10    25    16 1
   11    26    10 1
   12    26    17 1
   13    27    18 1
   14    28    14 1
   15    28    19 1
   16    29    12 1
   17    30    13 1
   18    31    24 1
   19    32     1 1
   20    32    25 1
   21    33    21 1
   22    33    26 1
   23    34    22 1
   24    34    27 1
   25    35    23 1
   26    35    28 1
   27    36    12 1
   28    36    24 1
   29    37    13 1
   30    37    15 1
   31    38    31 1
   32    39    20 1
   33    39    32 1
   34    40     2 1
   35    40    33 1
   36    41     3 1
   37    41    34 1
   38    42     4 1
   39    42    35 1
   40    43    38 1
   41    44     5 1
   42    44    17 1
   43    44    39 1
   44    45    10 1
   45    45    18 1
   46    45    40 1
   47    46    19 1
   48    46    41 1
   49    47    14 1
   50    47    16 1
   51    47    42 1
   52    48    38 1
   53    49    48 1
   54    50    49 1
   55    51    50 1
   56    52    51 1
   57    53    51 1
   58    54    53 1
   59    55    54 1
   60    56    55 1
   61    57    56 1
   62    58    56 1
   63    59    58 1
   64    60    59 1
   65    61    60 1
   66    62    61 1
   67    63    61 1
   68    64    27 1
   69    64    46 1
   70    65     5 1
   71    65    10 1
   72    65    64 1
   73    65    14 1
   74    66    23 1
   75    67    23 1
   76    68    23 1
   77    69    22 1
   78    70    22 1
   79    71    22 1
   80    72    21 1
   81    73    21 1
   82    74    21 1
   83    75    20 1
   84    76    20 1
   85    77    20 1
   86    78    15 1
   87    79    15 1
   88    80    15 1
   89    81     8 1
   90    82     8 1
   91    83     8 1
   92    84     7 1
   93    85     7 1
   94    86     6 1
   95    87     6 1
   96    88     3 1
   97    89     3 1
   98    90     1 1
   99    91     1 1
  100    92    63 1
  101    93    63 1
  102    94    63 1
  103    95    62 1
  104    96    62 1
  105    97    62 1
  106    98    60 1
  107    99    60 1
  108   100    59 1
  109   101    59 1
  110   102    58 1
  111   103    58 1
  112   104    57 1
  113   105    57 1
  114   106    57 1
  115   107    55 1
  116   108    55 1
  117   109    54 1
  118   110    54 1
  119   111    53 1
  120   112    53 1
  121   113    19 1
  122   114    18 1
  123   115    17 1
  124   116     9 1
  125   117     2 1
  126   118    52 1
  127   119    52 1
  128   120    52 1
  129   121    51 1
  130   122    50 1
  131   123    50 1
  132   124    49 1
  133   125    49 1
  134   126    48 1
  135   127    48 1
  136   128    43 1
  137   129    43 1
  138   130    43 1
  139   131    39 1
  140   132    32 1
  141   133    31 1
  142   134    61 1
  143   135    56 1
  144   136    24 1
  145   137    24 1
  146   139   138 1
  147   140   139 1
  148   141   140 1
  149   142   140 1
  150   143   142 1
  151   144   138 1
  152   144   143 1
  153   145   144 1
  154   146   145 1
  155   147   146 1
  156   148   147 1
  157   149   148 1
  158   150   149 1
  159   151   150 1
  160   152   151 1
  161   153   152 1
  162   154   138 1
  163   155   138 1
  164   156   143 1
  165   157   147 1
  166   158   151 1
  167   160   159 1
  168   161   160 1
  169   162   161 1
  170   163   161 1
  171   164   163 1
  172   165   159 1
  173   165   164 1
  174   166   165 1
  175   167   166 1
  176   168   167 1
  177   169   168 1
  178   170   169 1
  179   171   170 1
  180   172   171 1
  181   173   172 1
  182   174   153 1
  183   174   173 1
  184   175   159 1
  185   176   159 1
  186   177   164 1
  187   178   168 1
  188   179   172 1
  189   180   179 1
  190   181   179 1
  191   182   179 1
  192   183   178 1
  193   184   178 1
  194   185   178 1
  195   186   177 1
  196   187   177 1
  197   188   177 1
  198   189   176 1
  199   190   176 1
  200   191   176 1
  201   192   175 1
  202   193   175 1
  203   194   175 1
  204   195   160 1
  205   196   160 1
  206   197   158 1
  207   198   158 1
  208   199   158 1
  209   200   157 1
  210   201   157 1
  211   202   157 1
  212   203   156 1
  213   204   156 1
  214   205   156 1
  215   206   155 1
  216   207   155 1
  217   208   155 1
  218   209   154 1
  219   210   154 1
  220   211   154 1
  221   212   141 1
  222   213   146 1
  223   214   145 1
  224   215   142 1
  225   216   142 1
  226   217   174 1
  227   218   173 1
  228   219   171 1
  229   220   170 1
  230   221   169 1
  231   222   140 1
  232   223   167 1
  233   224   166 1
  234   225   165 1
  235   226   163 1
  236   227   161 1
  237   228   139 1
  238   229   139 1
  239   230   153 1
  240   231   152 1
  241   232   150 1
  242   233   149 1
  243   234   148 1
  244   235   162 1
  245   65    153 1
  246   65    174 1
@<TRIPOS>SUBSTRUCTURE
      1 CLA               1 ****               0 ****  **** 
      2 LUT             138 ****               0 ****  **** 
