@<TRIPOS>MOLECULE
Cpptraj generated mol2 file.
  235   246     2     0     0
SMALL
USER_CHARGES


@<TRIPOS>ATOM
      1 CAA        77.0473   57.6955   33.0909 a2         1 CLA     -0.055900
      2 CAB        77.2984   61.5663   42.1919 c8         1 CLA     -0.148500
      3 CAC        70.2723   57.1996   42.0690 a2         1 CLA     -0.012600
      4 CAD        72.9778   54.9114   34.6328 ck         1 CLA      0.398800
      5 NA         76.0195   58.3314   36.5892 ns         1 CLA     -0.225500
      6 CBA        78.3734   57.6390   32.1733 a2         1 CLA     -0.135000
      7 CBB        78.4796   61.6328   42.8084 c0         1 CLA     -0.395200
      8 CBC        70.4174   55.7782   42.1944 a3         1 CLA     -0.037700
      9 CBD        74.4535   55.6387   34.2297 a1         1 CLA     -0.053900
     10 NB         75.9391   59.7208   39.1660 nm         1 CLA     -0.295700
     11 OBD        72.3811   54.0736   34.0465 o2         1 CLA     -0.494600
     12 CGA        78.8999   56.2695   31.8181 c4         1 CLA      0.827000
     13 CGD        75.4324   54.5962   33.8884 c4         1 CLA      0.655300
     14 ND         73.1955   57.2508   37.2829 nm         1 CLA     -0.291600
     15 CED        76.5287   52.5515   34.5095 a3         1 CLA      0.005400
     16 CHA        74.6809   56.7127   35.3404 cs         1 CLA     -0.123800
     17 CHB        77.8025   59.5369   37.5999 aa         1 CLA     -0.291900
     18 CHC        74.5951   59.9582   41.2529 aa         1 CLA     -0.090400
     19 CHD        71.4351   56.9289   39.0830 aa         1 CLA     -0.052000
     20 CMA        79.5205   57.6956   35.6434 a3         1 CLA     -0.230700
     21 CMB        79.2621   61.3067   39.6569 a3         1 CLA     -0.180800
     22 CMC        72.4238   59.1654   43.4743 a3         1 CLA     -0.134000
     23 CMD        70.2213   54.9582   36.9434 a3         1 CLA     -0.141100
     24 C1         79.9276   54.2275   32.7705 a2         1 CLA      0.023000
     25 C1A        75.8381   57.5185   35.4815 ac         1 CLA     -0.015100
     26 C1B        77.2203   60.0039   38.7944 cr         1 CLA      0.054700
     27 C1C        73.4923   59.1221   41.0569 cn         1 CLA     -0.005600
     28 C1D        71.9907   56.6706   37.7347 ap         1 CLA     -0.047300
     29 O1A        78.8461   55.7108   30.6797 o2         1 CLA     -0.610800
     30 O1D        76.0851   54.5499   32.8707 o2         1 CLA     -0.558200
     31 C2         80.0588   53.7517   34.2357 c8         1 CLA     -0.325100
     32 C2A        77.1994   57.3620   34.6063 a1         1 CLA      0.098600
     33 C2B        77.9400   60.7320   39.7893 cb         1 CLA      0.088500
     34 C2C        72.4412   58.8208   42.0241 cb         1 CLA      0.053700
     35 C2D        71.5489   55.6415   36.7865 cb         1 CLA      0.058900
     36 O2A        79.3128   55.5841   32.8768 o1         1 CLA     -0.437200
     37 O2D        75.4616   53.5597   34.7797 o1         1 CLA     -0.357600
     38 C3         80.8092   52.6347   34.5304 c5         1 CLA      0.031200
     39 C3A        78.1365   58.3365   35.3535 a1         1 CLA      0.166800
     40 C3B        77.0182   60.9217   40.8558 cb         1 CLA      0.035000
     41 C3C        71.5098   57.9126   41.4000 cb         1 CLA     -0.089900
     42 C3D        72.5673   55.5577   35.8281 cb         1 CLA     -0.035900
     43 C4         80.2111   51.2889   34.6450 a3         1 CLA     -0.053300
     44 C4A        77.3024   58.7589   36.5998 ac         1 CLA      0.001800
     45 C4B        75.7625   60.1710   40.4542 cn         1 CLA     -0.020900
     46 C4C        72.0366   57.7440   40.0936 cr         1 CLA     -0.044400
     47 C4D        73.5212   56.6478   36.1622 c6         1 CLA     -0.046000
     48 C5         82.3786   52.6204   34.5120 a2         1 CLA     -0.070400
     49 C6         83.1494   53.9821   34.6294 a2         1 CLA      0.043900
     50 C7         83.0704   54.4487   36.0948 a2         1 CLA     -0.150000
     51 C8         83.3186   55.9888   36.2479 a1         1 CLA      0.064200
     52 C9         84.6834   56.4993   35.5912 a3         1 CLA     -0.259300
     53 C10        83.4311   56.3937   37.7750 a2         1 CLA     -0.071900
     54 C11        82.1476   56.3095   38.6249 a2         1 CLA      0.014500
     55 C12        82.2722   56.6764   40.0751 a2         1 CLA     -0.112100
     56 C13        80.9160   56.5309   40.8777 a1         1 CLA      0.089200
     57 C14        79.6529   57.2644   40.3243 a3         1 CLA     -0.239100
     58 C15        81.1636   56.5703   42.3692 a2         1 CLA     -0.102200
     59 C16        81.5591   57.9409   42.9758 a2         1 CLA      0.023900
     60 C17        81.9913   57.8369   44.5315 a2         1 CLA     -0.105700
     61 C18        82.5763   59.0513   45.2749 a1         1 CLA      0.206800
     62 C19        83.8162   59.6279   44.7558 a3         1 CLA     -0.280100
     63 C20        81.5484   60.2083   45.4460 a3         1 CLA     -0.280100
     64 NC         73.2141   58.5052   39.8749 nx         1 CLA     -0.309200
     65 MG         74.5654   58.5777   38.1116 mg         1 CLA      0.895000
     66 HMD3       70.2239   54.3121   37.8329 dc         1 CLA      0.064300
     67 HMD2       69.5378   55.6905   37.1328 dc         1 CLA      0.064300
     68 HMD1       70.0512   54.4200   35.9917 dc         1 CLA      0.064300
     69 HMC3       71.8615   58.4727   44.0937 dc         1 CLA      0.052100
     70 HMC2       73.4240   59.1402   43.8022 dc         1 CLA      0.052100
     71 HMC1       72.0938   60.1451   43.5919 dc         1 CLA      0.052100
     72 HMB3       80.0045   60.7660   40.2504 dc         1 CLA      0.063600
     73 HMB2       79.5187   61.3606   38.6350 dc         1 CLA      0.063600
     74 HMB1       79.1741   62.3081   40.0980 dc         1 CLA      0.063600
     75 HMA3       80.2717   58.4247   36.0038 dc         1 CLA      0.058300
     76 HMA2       79.3370   57.0850   36.5221 dc         1 CLA      0.058300
     77 HMA1       79.8691   56.9723   34.8652 dc         1 CLA      0.058300
     78 HED3       77.4320   53.1326   34.7468 dc         1 CLA      0.079300
     79 HED2       76.4015   51.7281   35.2797 dc         1 CLA      0.079300
     80 HED1       76.6031   52.1452   33.5094 dc         1 CLA      0.079300
     81 HBC3       71.0209   55.7236   43.1094 dc         1 CLA      0.016300
     82 HBC2       69.4445   55.2790   42.3092 dc         1 CLA      0.016300
     83 HBC1       71.0840   55.3395   41.3948 dc         1 CLA      0.016300
     84 HBB2       78.6504   62.2077   43.7522 da         1 CLA      0.183000
     85 HBB1       79.3754   61.2010   42.3044 da         1 CLA      0.183000
     86 HBA2       78.2279   58.3298   31.3619 dc         1 CLA      0.029400
     87 HBA1       79.2179   58.0113   32.7899 dc         1 CLA      0.029400
     88 HAC2       70.1217   57.6614   43.0405 dc         1 CLA      0.029300
     89 HAC1       69.3834   57.3627   41.4334 dc         1 CLA      0.029300
     90 HAA2       76.3064   57.0853   32.5798 dc         1 CLA      0.028700
     91 HAA1       76.6960   58.7270   33.0681 dc         1 CLA      0.028700
     92 H203       81.1253   60.6523   44.5277 dc         1 CLA      0.065600
     93 H202       80.6648   59.9315   45.9987 dc         1 CLA      0.065600
     94 H201       81.9451   61.0369   45.9981 dc         1 CLA      0.065600
     95 H193       84.6111   58.9135   44.5437 dc         1 CLA      0.065600
     96 H192       83.6334   60.2056   43.8247 dc         1 CLA      0.065600
     97 H191       84.2503   60.3189   45.5151 dc         1 CLA      0.065600
     98 H172       81.0281   57.5758   45.0633 dc         1 CLA      0.027600
     99 H171       82.7589   56.9988   44.5822 dc         1 CLA      0.027600
    100 H162       82.3894   58.2451   42.3423 dc         1 CLA      0.002900
    101 H161       80.7403   58.6586   42.9065 dc         1 CLA      0.002900
    102 H152       80.2729   56.1418   42.6975 dc         1 CLA      0.029100
    103 H151       81.9805   55.8628   42.6246 dc         1 CLA      0.029100
    104 H143       78.7674   56.9780   40.8978 dc         1 CLA      0.063600
    105 H142       79.7914   58.3350   40.4247 dc         1 CLA      0.063600
    106 H141       79.4511   57.0349   39.3321 dc         1 CLA      0.063600
    107 H122       82.9266   55.9098   40.5656 dc         1 CLA      0.032500
    108 H121       82.6127   57.7505   40.2459 dc         1 CLA      0.032500
    109 H112       81.3157   56.7854   38.0705 dc         1 CLA      0.006600
    110 H111       81.9003   55.2369   38.6390 dc         1 CLA      0.006600
    111 H102       84.1538   55.7309   38.2404 dc         1 CLA      0.024100
    112 H101       83.7765   57.4110   37.8219 dc         1 CLA      0.024100
    113 HHD        70.4725   56.4451   39.2791 da         1 CLA      0.174300
    114 HHC        74.5643   60.4163   42.2353 da         1 CLA      0.136800
    115 HHB        78.8749   59.8713   37.4392 da         1 CLA      0.138300
    116 HBD        74.4299   56.2172   33.3139 dc         1 CLA      0.107700
    117 HAB        76.4009   62.0091   42.6253 da         1 CLA      0.155200
    118 H93        85.5387   56.1080   36.1192 dc         1 CLA      0.069500
    119 H92        84.7595   55.9834   34.6607 dc         1 CLA      0.069500
    120 H91        84.5646   57.6092   35.4751 dc         1 CLA      0.069500
    121 H8         82.3846   56.5427   35.9615 dc         1 CLA      0.029300
    122 H72        82.1171   54.2522   36.5514 dc         1 CLA      0.044400
    123 H71        83.9128   54.0150   36.7296 dc         1 CLA      0.044400
    124 H62        84.1707   53.9505   34.3430 dc         1 CLA      0.015600
    125 H61        82.8213   54.6882   33.8696 dc         1 CLA      0.015600
    126 H52        82.7262   52.0106   35.3531 dc         1 CLA      0.033200
    127 H51        82.7436   52.2371   33.5820 dc         1 CLA      0.033200
    128 H43        79.1047   51.3359   34.4755 dc         1 CLA      0.037000
    129 H42        80.6397   50.5034   34.1115 dc         1 CLA      0.037000
    130 H41        80.3572   50.9237   35.6417 dc         1 CLA      0.037000
    131 H3A        78.3935   59.2231   34.7498 dc         1 CLA      0.041100
    132 H2A        77.5382   56.3037   34.7375 dc         1 CLA      0.083100
    133 H2         79.8023   54.4177   34.9962 da         1 CLA      0.180900
    134 H18        82.8000   58.7159   46.2273 dc         1 CLA     -0.003900
    135 H13        80.6795   55.4939   40.8169 dc         1 CLA      0.019700
    136 H12        79.2447   53.6131   32.2421 dc         1 CLA      0.120400
    137 H11        80.9746   54.1861   32.3956 dc         1 CLA      0.120400
    138 C1         67.1369   61.3966   49.1012 Z1         2 LUT      0.509236
    139 C2         67.1890   62.6181   50.0517 Z2         2 LUT     -0.434695
    140 C3         65.9198   63.5022   49.9899 Z3         2 LUT      0.437453
    141 O3         66.3008   64.7808   50.4032 S1         2 LUT     -0.547129
    142 C4         65.2220   63.5580   48.5572 Z4         2 LUT     -0.468603
    143 C5         66.0422   62.9402   47.4522 Z5         2 LUT      0.279246
    144 C6         66.8275   61.8688   47.6528 Z6         2 LUT     -0.305473
    145 C7         67.7397   61.3567   46.5815 Z7         2 LUT      0.069402
    146 C8         68.6263   61.9717   45.7730 Z8         2 LUT     -0.191631
    147 C9         69.4105   61.5606   44.6281 Z9         2 LUT      0.196698
    148 C10        70.3530   62.4526   44.0616 Y1         2 LUT     -0.208611
    149 C11        71.0782   62.3470   42.8270 Y2         2 LUT      0.030784
    150 C12        72.1377   63.0780   42.3948 Y3         2 LUT     -0.220316
    151 C13        73.0098   62.9236   41.2350 Y4         2 LUT      0.215937
    152 C14        74.1724   63.6780   41.2731 Y5         2 LUT     -0.185793
    153 C15        75.1779   63.5944   40.2764 Y6         2 LUT     -0.057835
    154 C16        65.9198   60.5696   49.6143 Y7         2 LUT     -0.405615
    155 C17        68.3662   60.6132   49.4220 Y7         2 LUT     -0.405615
    156 C18        65.9354   63.7624   46.2120 Y9         2 LUT     -0.369639
    157 C19        68.9795   60.2874   43.9929 W1         2 LUT     -0.333362
    158 C20        72.3565   62.5338   39.9381 W2         2 LUT     -0.323439
    159 C21        86.1457   64.5335   33.7644 Z1         2 LUT      0.406104
    160 C22        86.8008   63.8891   32.5172 Z2         2 LUT     -0.404965
    161 C23        87.0333   64.8797   31.4195 Z3         2 LUT      0.391255
    162 O23        87.5972   64.0578   30.4060 S1         2 LUT     -0.528210
    163 C24        85.7656   65.6355   31.0076 W6         2 LUT     -0.258361
    164 C25        84.7289   65.7633   31.8709 Z5         2 LUT      0.133546
    165 C26        84.7645   64.9684   33.2649 W8         2 LUT     -0.147008
    166 C27        84.1283   65.7198   34.3229 Z7         2 LUT      0.023843
    167 C28        82.9443   65.3961   34.9474 Z8         2 LUT     -0.216987
    168 C29        82.2982   66.0098   36.0951 Z9         2 LUT      0.206524
    169 C30        81.2518   65.3319   36.6406 Y1         2 LUT     -0.215556
    170 C31        80.5593   65.6606   37.8256 Y2         2 LUT      0.025142
    171 C32        79.4253   64.9026   38.1049 Y3         2 LUT     -0.212209
    172 C33        78.5010   65.1018   39.2224 Y4         2 LUT      0.240937
    173 C34        77.4207   64.3575   39.3124 Y5         2 LUT     -0.218862
    174 C35        76.3367   64.2893   40.2819 Y6         2 LUT     -0.023547
    175 C36        87.0754   65.6788   34.2107 Y7         2 LUT     -0.393485
    176 C37        86.0907   63.4894   34.8743 Y7         2 LUT     -0.393485
    177 C38        83.6177   66.7328   31.4930 Y9         2 LUT     -0.387526
    178 C39        82.9196   67.3143   36.5941 W1         2 LUT     -0.322618
    179 C40        78.7196   66.3343   40.1063 W2         2 LUT     -0.358472
    180 H403       78.3949   67.2569   39.6153 R7         2 LUT      0.097720
    181 H402       78.2194   66.2594   41.0752 R7         2 LUT      0.097720
    182 H401       79.7806   66.5120   40.3691 R7         2 LUT      0.097720
    183 H393       83.8953   67.1977   37.1692 R4         2 LUT      0.082505
    184 H392       83.0078   67.9710   35.7896 R4         2 LUT      0.082505
    185 H391       82.2415   67.9215   37.1816 R4         2 LUT      0.082505
    186 H383       83.9464   67.5762   30.8419 R1         2 LUT      0.104030
    187 H382       82.7459   66.0863   31.1015 R1         2 LUT      0.104030
    188 H381       83.2227   67.1871   32.4840 R1         2 LUT      0.104030
    189 H373       85.4829   62.6471   34.5568 T4         2 LUT      0.089537
    190 H372       87.1565   63.0795   35.0942 T4         2 LUT      0.089537
    191 H371       85.7220   63.9619   35.7782 T4         2 LUT      0.089537
    192 H363       86.7552   66.1140   35.1615 T4         2 LUT      0.089537
    193 H362       88.0098   65.1467   34.2473 T4         2 LUT      0.089537
    194 H361       87.2248   66.4466   33.4742 T4         2 LUT      0.089537
    195 H222       87.8498   63.5017   32.6725 U2         2 LUT      0.127376
    196 H221       86.1604   63.1307   32.2028 U2         2 LUT      0.127376
    197 H203       71.9265   63.3785   39.3623 R7         2 LUT      0.087068
    198 H202       72.9464   62.0570   39.1564 R7         2 LUT      0.087068
    199 H201       71.6521   61.7510   40.1361 R7         2 LUT      0.087068
    200 H193       68.0056   60.2552   43.4657 R4         2 LUT      0.089716
    201 H192       69.6836   59.9857   43.2387 R4         2 LUT      0.089716
    202 H191       69.0475   59.4395   44.6481 R4         2 LUT      0.089716
    203 H183       66.3173   63.3041   45.3267 R1         2 LUT      0.094572
    204 H182       64.9335   63.8525   45.8195 R1         2 LUT      0.094572
    205 H181       66.3398   64.7974   46.2996 R1         2 LUT      0.094572
    206 H173       69.2206   61.0990   48.9350 T4         2 LUT      0.093752
    207 H172       68.6563   60.5086   50.4876 T4         2 LUT      0.093752
    208 H171       68.2722   59.6168   49.0565 T4         2 LUT      0.093752
    209 H163       64.9588   60.9047   49.3426 T4         2 LUT      0.093752
    210 H162       66.0350   59.5270   49.4335 T4         2 LUT      0.093752
    211 H161       65.7551   60.5918   50.6990 T4         2 LUT      0.093752
    212 HO3        65.5479   65.3633   50.6353 Q1         2 LUT      0.300121
    213 H8         68.6179   63.0632   45.9281 U7         2 LUT      0.080784
    214 H7         67.6655   60.2407   46.3432 U6         2 LUT      0.042190
    215 H42        64.3369   62.8811   48.5923 U5         2 LUT      0.145166
    216 H41        64.7985   64.6129   48.2519 U5         2 LUT      0.145166
    217 H35        76.4960   64.9587   41.0978 T3         2 LUT      0.077919
    218 H34        77.4544   63.5667   38.5271 T2         2 LUT      0.073626
    219 H32        79.1890   64.0580   37.4519 T1         2 LUT      0.092510
    220 H31        80.8461   66.5091   38.4800 U9         2 LUT      0.070048
    221 H30        81.0921   64.3538   36.0577 U8         2 LUT      0.085442
    222 H3         65.4044   62.9601   50.8379 U3         2 LUT     -0.031596
    223 H28        82.3455   64.4943   34.4798 U7         2 LUT      0.084728
    224 H27        84.7264   66.4452   34.6526 U6         2 LUT      0.087291
    225 H26        84.1189   64.1278   33.1865 Q6         2 LUT      0.075325
    226 H24        85.7898   66.2543   30.1106 Q5         2 LUT      0.094482
    227 H23        87.9321   65.4334   31.7729 U3         2 LUT     -0.024869
    228 H22        67.5907   62.3974   51.0154 U2         2 LUT      0.127376
    229 H21        67.9537   63.2105   49.6338 U2         2 LUT      0.127376
    230 H15        75.1013   62.9263   39.3877 T3         2 LUT      0.093200
    231 H14        74.3111   64.2972   42.1119 T2         2 LUT      0.068865
    232 H12        72.5049   63.7443   43.2026 T1         2 LUT      0.095507
    233 H11        70.6884   61.5321   42.1585 U9         2 LUT      0.068930
    234 H10        70.3640   63.4110   44.6639 U8         2 LUT      0.083911
    235 H1         87.7051   64.4127   29.5363 Q1         2 LUT      0.297311
@<TRIPOS>BOND
    1     6     1 1
    2     7     2 1
    3     8     3 1
    4     9     4 1
    5    11     4 1
    6    12     6 1
    7    13     9 1
    8    16     9 1
    9    25     5 1
   10    25    16 1
   11    26    10 1
   12    26    17 1
   13    27    18 1
   14    28    14 1
   15    28    19 1
   16    29    12 1
   17    30    13 1
   18    31    24 1
   19    32     1 1
   20    32    25 1
   21    33    21 1
   22    33    26 1
   23    34    22 1
   24    34    27 1
   25    35    23 1
   26    35    28 1
   27    36    12 1
   28    36    24 1
   29    37    13 1
   30    37    15 1
   31    38    31 1
   32    39    20 1
   33    39    32 1
   34    40     2 1
   35    40    33 1
   36    41     3 1
   37    41    34 1
   38    42     4 1
   39    42    35 1
   40    43    38 1
   41    44     5 1
   42    44    17 1
   43    44    39 1
   44    45    10 1
   45    45    18 1
   46    45    40 1
   47    46    19 1
   48    46    41 1
   49    47    14 1
   50    47    16 1
   51    47    42 1
   52    48    38 1
   53    49    48 1
   54    50    49 1
   55    51    50 1
   56    52    51 1
   57    53    51 1
   58    54    53 1
   59    55    54 1
   60    56    55 1
   61    57    56 1
   62    58    56 1
   63    59    58 1
   64    60    59 1
   65    61    60 1
   66    62    61 1
   67    63    61 1
   68    64    27 1
   69    64    46 1
   70    65     5 1
   71    65    10 1
   72    65    64 1
   73    65    14 1
   74    66    23 1
   75    67    23 1
   76    68    23 1
   77    69    22 1
   78    70    22 1
   79    71    22 1
   80    72    21 1
   81    73    21 1
   82    74    21 1
   83    75    20 1
   84    76    20 1
   85    77    20 1
   86    78    15 1
   87    79    15 1
   88    80    15 1
   89    81     8 1
   90    82     8 1
   91    83     8 1
   92    84     7 1
   93    85     7 1
   94    86     6 1
   95    87     6 1
   96    88     3 1
   97    89     3 1
   98    90     1 1
   99    91     1 1
  100    92    63 1
  101    93    63 1
  102    94    63 1
  103    95    62 1
  104    96    62 1
  105    97    62 1
  106    98    60 1
  107    99    60 1
  108   100    59 1
  109   101    59 1
  110   102    58 1
  111   103    58 1
  112   104    57 1
  113   105    57 1
  114   106    57 1
  115   107    55 1
  116   108    55 1
  117   109    54 1
  118   110    54 1
  119   111    53 1
  120   112    53 1
  121   113    19 1
  122   114    18 1
  123   115    17 1
  124   116     9 1
  125   117     2 1
  126   118    52 1
  127   119    52 1
  128   120    52 1
  129   121    51 1
  130   122    50 1
  131   123    50 1
  132   124    49 1
  133   125    49 1
  134   126    48 1
  135   127    48 1
  136   128    43 1
  137   129    43 1
  138   130    43 1
  139   131    39 1
  140   132    32 1
  141   133    31 1
  142   134    61 1
  143   135    56 1
  144   136    24 1
  145   137    24 1
  146   139   138 1
  147   140   139 1
  148   141   140 1
  149   142   140 1
  150   143   142 1
  151   144   138 1
  152   144   143 1
  153   145   144 1
  154   146   145 1
  155   147   146 1
  156   148   147 1
  157   149   148 1
  158   150   149 1
  159   151   150 1
  160   152   151 1
  161   153   152 1
  162   154   138 1
  163   155   138 1
  164   156   143 1
  165   157   147 1
  166   158   151 1
  167   160   159 1
  168   161   160 1
  169   162   161 1
  170   163   161 1
  171   164   163 1
  172   165   159 1
  173   165   164 1
  174   166   165 1
  175   167   166 1
  176   168   167 1
  177   169   168 1
  178   170   169 1
  179   171   170 1
  180   172   171 1
  181   173   172 1
  182   174   153 1
  183   174   173 1
  184   175   159 1
  185   176   159 1
  186   177   164 1
  187   178   168 1
  188   179   172 1
  189   180   179 1
  190   181   179 1
  191   182   179 1
  192   183   178 1
  193   184   178 1
  194   185   178 1
  195   186   177 1
  196   187   177 1
  197   188   177 1
  198   189   176 1
  199   190   176 1
  200   191   176 1
  201   192   175 1
  202   193   175 1
  203   194   175 1
  204   195   160 1
  205   196   160 1
  206   197   158 1
  207   198   158 1
  208   199   158 1
  209   200   157 1
  210   201   157 1
  211   202   157 1
  212   203   156 1
  213   204   156 1
  214   205   156 1
  215   206   155 1
  216   207   155 1
  217   208   155 1
  218   209   154 1
  219   210   154 1
  220   211   154 1
  221   212   141 1
  222   213   146 1
  223   214   145 1
  224   215   142 1
  225   216   142 1
  226   217   174 1
  227   218   173 1
  228   219   171 1
  229   220   170 1
  230   221   169 1
  231   222   140 1
  232   223   167 1
  233   224   166 1
  234   225   165 1
  235   226   163 1
  236   227   161 1
  237   228   139 1
  238   229   139 1
  239   230   153 1
  240   231   152 1
  241   232   150 1
  242   233   149 1
  243   234   148 1
  244   235   162 1
  245   65    153 1
  246   65    174 1
@<TRIPOS>SUBSTRUCTURE
      1 CLA               1 ****               0 ****  **** 
      2 LUT             138 ****               0 ****  **** 
