@<TRIPOS>MOLECULE
Cpptraj generated mol2 file.
  235   246     2     0     0
SMALL
USER_CHARGES


@<TRIPOS>ATOM
      1 CAA        77.1656   57.8499   33.0551 a2         1 CLA     -0.055900
      2 CAB        77.2378   61.3798   42.2369 c8         1 CLA     -0.148500
      3 CAC        70.3434   57.3764   41.6554 a2         1 CLA     -0.012600
      4 CAD        73.4148   54.8668   34.4868 ck         1 CLA      0.398800
      5 NA         76.3197   58.1100   36.5632 ns         1 CLA     -0.225500
      6 CBA        78.4349   57.8185   32.1472 a2         1 CLA     -0.135000
      7 CBB        78.4444   61.6379   42.7835 c0         1 CLA     -0.395200
      8 CBC        70.2160   55.8070   41.5951 a3         1 CLA     -0.037700
      9 CBD        74.6993   55.6391   34.1087 a1         1 CLA     -0.053900
     10 NB         76.1686   59.6308   39.1409 nm         1 CLA     -0.295700
     11 OBD        72.8414   54.0345   33.8368 o2         1 CLA     -0.494600
     12 CGA        79.0717   56.4747   31.7120 c4         1 CLA      0.827000
     13 CGD        75.8318   54.6272   33.8030 c4         1 CLA      0.655300
     14 ND         73.5442   57.1850   37.1480 nm         1 CLA     -0.291600
     15 CED        76.8602   52.5916   34.3022 a3         1 CLA      0.005400
     16 CHA        75.0655   56.6384   35.2308 cs         1 CLA     -0.123800
     17 CHB        78.0335   59.5052   37.6094 aa         1 CLA     -0.291900
     18 CHC        74.7697   59.7361   41.2178 aa         1 CLA     -0.090400
     19 CHD        71.7259   56.8972   38.8044 aa         1 CLA     -0.052000
     20 CMA        79.7433   57.4699   35.9453 a3         1 CLA     -0.230700
     21 CMB        79.2455   61.5469   39.7052 a3         1 CLA     -0.180800
     22 CMC        72.4981   59.2177   43.1360 a3         1 CLA     -0.134000
     23 CMD        70.8622   54.6215   36.6567 a3         1 CLA     -0.141100
     24 C1         80.2901   54.5261   32.5864 a2         1 CLA      0.023000
     25 C1A        76.1786   57.4590   35.4011 ac         1 CLA     -0.015100
     26 C1B        77.4196   59.9275   38.8371 cr         1 CLA      0.054700
     27 C1C        73.6543   58.9796   40.9493 cn         1 CLA     -0.005600
     28 C1D        72.3517   56.6199   37.5401 ap         1 CLA     -0.047300
     29 O1A        79.0934   56.0417   30.5887 o2         1 CLA     -0.610800
     30 O1D        76.5301   54.6599   32.7728 o2         1 CLA     -0.558200
     31 C2         80.9451   54.2288   33.8516 c8         1 CLA     -0.325100
     32 C2A        77.4102   57.4084   34.5733 a1         1 CLA      0.098600
     33 C2B        77.9281   60.8186   39.8826 cb         1 CLA      0.088500
     34 C2C        72.5194   58.7968   41.7781 cb         1 CLA      0.053700
     35 C2D        72.0664   55.5066   36.6923 cb         1 CLA      0.058900
     36 O2A        79.6252   55.7974   32.7780 o1         1 CLA     -0.437200
     37 O2D        75.9873   53.6871   34.7526 o1         1 CLA     -0.357600
     38 C3         81.6701   53.1481   34.0884 c5         1 CLA      0.031200
     39 C3A        78.4666   58.2859   35.5062 a1         1 CLA      0.166800
     40 C3B        77.0953   60.7300   40.9165 cb         1 CLA      0.035000
     41 C3C        71.6333   57.9563   41.0709 cb         1 CLA     -0.089900
     42 C3D        73.0319   55.5280   35.7242 cb         1 CLA     -0.035900
     43 C4         81.0516   51.8672   34.6317 a3         1 CLA     -0.053300
     44 C4A        77.5680   58.7104   36.6273 ac         1 CLA      0.001800
     45 C4B        75.9296   59.9661   40.4687 cn         1 CLA     -0.020900
     46 C4C        72.2052   57.7278   39.7542 cr         1 CLA     -0.044400
     47 C4D        73.9365   56.5641   35.9894 c6         1 CLA     -0.046000
     48 C5         83.2116   53.2316   33.7256 a2         1 CLA     -0.070400
     49 C6         84.0098   54.5805   33.9691 a2         1 CLA      0.043900
     50 C7         84.1745   54.7858   35.5602 a2         1 CLA     -0.150000
     51 C8         84.3133   56.3651   35.8886 a1         1 CLA      0.064200
     52 C9         85.5443   57.0974   35.2879 a3         1 CLA     -0.259300
     53 C10        84.1818   56.5911   37.4241 a2         1 CLA     -0.071900
     54 C11        82.8832   56.0636   38.2061 a2         1 CLA      0.014500
     55 C12        82.8066   56.9481   39.4844 a2         1 CLA     -0.112100
     56 C13        81.5227   56.6186   40.3656 a1         1 CLA      0.089200
     57 C14        80.2509   57.4666   40.0226 a3         1 CLA     -0.239100
     58 C15        81.7718   56.5089   41.8451 a2         1 CLA     -0.102200
     59 C16        82.2159   57.7251   42.6597 a2         1 CLA      0.023900
     60 C17        82.2457   57.3952   44.2076 a2         1 CLA     -0.105700
     61 C18        82.8932   58.5114   44.9981 a1         1 CLA      0.206800
     62 C19        84.4927   58.5024   44.9130 a3         1 CLA     -0.280100
     63 C20        82.3466   59.8899   44.7967 a3         1 CLA     -0.280100
     64 NC         73.4173   58.4630   39.6494 nx         1 CLA     -0.309200
     65 MG         74.7877   58.4278   38.0825 mg         1 CLA      0.895000
     66 HMD3       71.0212   53.6951   36.0384 dc         1 CLA      0.064300
     67 HMD2       70.5524   54.3861   37.7029 dc         1 CLA      0.064300
     68 HMD1       70.1042   55.1642   36.0710 dc         1 CLA      0.064300
     69 HMC3       73.3327   58.7992   43.6513 dc         1 CLA      0.052100
     70 HMC2       72.6011   60.3634   43.0795 dc         1 CLA      0.052100
     71 HMC1       71.6479   58.9340   43.7253 dc         1 CLA      0.052100
     72 HMB3       80.0871   61.0309   40.1583 dc         1 CLA      0.063600
     73 HMB2       79.4246   61.8628   38.6515 dc         1 CLA      0.063600
     74 HMB1       79.2207   62.4436   40.2525 dc         1 CLA      0.063600
     75 HMA3       80.1945   57.0554   35.1060 dc         1 CLA      0.058300
     76 HMA2       80.4238   58.0872   36.4640 dc         1 CLA      0.058300
     77 HMA1       79.3933   56.7441   36.7068 dc         1 CLA      0.058300
     78 HED3       76.4180   52.2121   33.3163 dc         1 CLA      0.079300
     79 HED2       77.9073   52.8585   34.1878 dc         1 CLA      0.079300
     80 HED1       76.7028   51.8764   35.1205 dc         1 CLA      0.079300
     81 HBC3       71.1488   55.4229   41.9379 dc         1 CLA      0.016300
     82 HBC2       69.4406   55.5268   42.2975 dc         1 CLA      0.016300
     83 HBC1       69.8950   55.4986   40.5995 dc         1 CLA      0.016300
     84 HBB2       78.4502   62.2080   43.7871 da         1 CLA      0.183000
     85 HBB1       79.3639   61.2541   42.2504 da         1 CLA      0.183000
     86 HBA2       78.2648   58.4797   31.3445 dc         1 CLA      0.029400
     87 HBA1       79.3544   58.3274   32.6267 dc         1 CLA      0.029400
     88 HAC2       70.2808   57.6770   42.6989 dc         1 CLA      0.029300
     89 HAC1       69.4526   57.8423   41.1838 dc         1 CLA      0.029300
     90 HAA2       76.4774   57.2666   32.5574 dc         1 CLA      0.028700
     91 HAA1       76.8421   58.9168   33.0800 dc         1 CLA      0.028700
     92 H203       82.5739   60.1176   43.7724 dc         1 CLA      0.065600
     93 H202       81.2926   59.9147   44.7658 dc         1 CLA      0.065600
     94 H201       82.9126   60.6989   45.3879 dc         1 CLA      0.065600
     95 H193       84.9638   57.5037   44.9676 dc         1 CLA      0.065600
     96 H192       84.6786   58.9578   43.9384 dc         1 CLA      0.065600
     97 H191       84.9458   59.0221   45.7867 dc         1 CLA      0.065600
     98 H172       81.2894   57.2157   44.6299 dc         1 CLA      0.027600
     99 H171       82.8895   56.5530   44.4273 dc         1 CLA      0.027600
    100 H162       83.2125   58.0929   42.2495 dc         1 CLA      0.002900
    101 H161       81.4091   58.4331   42.5115 dc         1 CLA      0.002900
    102 H152       80.7782   56.1895   42.2843 dc         1 CLA      0.029100
    103 H151       82.2513   55.5372   42.1256 dc         1 CLA      0.029100
    104 H143       79.2574   57.0384   40.4452 dc         1 CLA      0.063600
    105 H142       80.4524   58.4268   40.4716 dc         1 CLA      0.063600
    106 H141       80.0967   57.4994   38.9070 dc         1 CLA      0.063600
    107 H122       83.6160   56.4558   39.9819 dc         1 CLA      0.032500
    108 H121       82.9765   57.9101   39.2524 dc         1 CLA      0.032500
    109 H112       81.9157   56.3866   37.7281 dc         1 CLA      0.006600
    110 H111       82.8527   55.0078   38.2757 dc         1 CLA      0.006600
    111 H102       85.0621   56.2174   37.9690 dc         1 CLA      0.024100
    112 H101       84.0788   57.6359   37.5027 dc         1 CLA      0.024100
    113 HHD        70.7619   56.4090   38.9586 da         1 CLA      0.174300
    114 HHC        74.8029   60.2053   42.2660 da         1 CLA      0.136800
    115 HHB        79.0527   59.8582   37.4201 da         1 CLA      0.138300
    116 HBD        74.4732   56.1879   33.2393 dc         1 CLA      0.107700
    117 HAB        76.3415   61.6769   42.7819 da         1 CLA      0.155200
    118 H93        86.4315   56.4667   35.3419 dc         1 CLA      0.069500
    119 H92        85.3346   57.4600   34.2501 dc         1 CLA      0.069500
    120 H91        85.7167   57.9751   35.9422 dc         1 CLA      0.069500
    121 H8         83.3919   56.8259   35.4960 dc         1 CLA      0.029300
    122 H72        83.3003   54.3991   36.0586 dc         1 CLA      0.044400
    123 H71        85.1043   54.2577   35.8738 dc         1 CLA      0.044400
    124 H62        84.9615   54.5131   33.5202 dc         1 CLA      0.015600
    125 H61        83.3927   55.3855   33.4887 dc         1 CLA      0.015600
    126 H52        83.7178   52.4570   34.2306 dc         1 CLA      0.033200
    127 H51        83.2251   53.0776   32.6341 dc         1 CLA      0.033200
    128 H43        79.9300   52.0617   34.5881 dc         1 CLA      0.037000
    129 H42        81.2962   50.9408   34.0971 dc         1 CLA      0.037000
    130 H41        81.2998   51.8070   35.6804 dc         1 CLA      0.037000
    131 H3A        78.7216   59.2725   35.0654 dc         1 CLA      0.041100
    132 H2A        77.8417   56.3848   34.6202 dc         1 CLA      0.083100
    133 H2         80.8197   54.9270   34.6896 da         1 CLA      0.180900
    134 H18        82.6451   58.3248   46.0135 dc         1 CLA     -0.003900
    135 H13        81.2781   55.6072   40.1200 dc         1 CLA      0.019700
    136 H12        79.5409   53.7394   32.4005 dc         1 CLA      0.120400
    137 H11        81.0051   54.5715   31.7140 dc         1 CLA      0.120400
    138 C1         66.9512   61.1824   49.0866 Z1         2 LUT      0.509236
    139 C2         67.0704   62.6361   49.8258 Z2         2 LUT     -0.434695
    140 C3         65.7970   63.4388   49.8547 Z3         2 LUT      0.437453
    141 O3         66.2448   64.8358   50.1038 S1         2 LUT     -0.547129
    142 C4         64.9172   63.0883   48.6255 Z4         2 LUT     -0.468603
    143 C5         65.5632   62.4262   47.4709 Z5         2 LUT      0.279246
    144 C6         66.4980   61.4469   47.6362 Z6         2 LUT     -0.305473
    145 C7         67.3591   61.0889   46.4532 Z7         2 LUT      0.069402
    146 C8         68.4988   61.6443   45.8948 Z8         2 LUT     -0.191631
    147 C9         69.0405   61.4148   44.5604 Z9         2 LUT      0.196698
    148 C10        69.9747   62.3071   44.1111 Y1         2 LUT     -0.208611
    149 C11        70.7126   62.2464   42.9239 Y2         2 LUT      0.030784
    150 C12        71.8720   62.9288   42.7888 Y3         2 LUT     -0.220316
    151 C13        72.7283   62.7894   41.5837 Y4         2 LUT      0.215937
    152 C14        73.9064   63.4377   41.5275 Y5         2 LUT     -0.185793
    153 C15        75.0114   63.5459   40.5732 Y6         2 LUT     -0.057835
    154 C16        66.0008   60.4891   50.0918 Y7         2 LUT     -0.405615
    155 C17        68.3046   60.3963   49.1773 Y7         2 LUT     -0.405615
    156 C18        65.4986   63.1978   46.2252 Y9         2 LUT     -0.369639
    157 C19        68.4538   60.3254   43.6961 W1         2 LUT     -0.333362
    158 C20        72.1847   62.1693   40.3031 W2         2 LUT     -0.323439
    159 C21        86.4485   64.5860   34.1136 Z1         2 LUT      0.406104
    160 C22        86.9154   64.0865   32.7765 Z2         2 LUT     -0.404965
    161 C23        86.9689   65.2170   31.7614 Z3         2 LUT      0.391255
    162 O23        87.4212   64.6463   30.5353 S1         2 LUT     -0.528210
    163 C24        85.8283   66.1544   31.7924 W6         2 LUT     -0.258361
    164 C25        84.8106   66.1018   32.6949 Z5         2 LUT      0.133546
    165 C26        84.9231   65.0915   33.8002 W8         2 LUT     -0.147008
    166 C27        84.2743   65.6208   35.0774 Z7         2 LUT      0.023843
    167 C28        82.9929   65.3449   35.4815 Z8         2 LUT     -0.216987
    168 C29        82.5156   65.7185   36.8289 Z9         2 LUT      0.206524
    169 C30        81.2489   65.2245   37.1362 Y1         2 LUT     -0.215556
    170 C31        80.5553   65.3889   38.3745 Y2         2 LUT      0.025142
    171 C32        79.3553   64.8423   38.6587 Y3         2 LUT     -0.212209
    172 C33        78.5600   64.9494   39.8604 Y4         2 LUT      0.240937
    173 C34        77.3456   64.2497   39.8898 Y5         2 LUT     -0.218862
    174 C35        76.2434   64.2105   40.7988 Y6         2 LUT     -0.023547
    175 C36        87.4658   65.5462   34.7646 Y7         2 LUT     -0.393485
    176 C37        86.4274   63.2522   34.9240 Y7         2 LUT     -0.393485
    177 C38        83.5908   66.9664   32.5268 Y9         2 LUT     -0.387526
    178 C39        83.3811   66.5587   37.7495 W1         2 LUT     -0.322618
    179 C40        79.0117   65.9045   40.9614 W2         2 LUT     -0.358472
    180 H403       79.9880   65.5561   41.2487 R7         2 LUT      0.097720
    181 H402       79.0774   66.9082   40.5742 R7         2 LUT      0.097720
    182 H401       78.3174   65.8857   41.8209 R7         2 LUT      0.097720
    183 H393       84.2364   65.9781   38.0769 R4         2 LUT      0.082505
    184 H392       83.6854   67.4752   37.2593 R4         2 LUT      0.082505
    185 H391       82.8899   66.7716   38.7104 R4         2 LUT      0.082505
    186 H383       82.6439   66.3520   32.5030 R1         2 LUT      0.104030
    187 H382       83.5346   67.6002   33.4617 R1         2 LUT      0.104030
    188 H381       83.5292   67.6641   31.6362 R1         2 LUT      0.104030
    189 H373       85.5340   62.7073   34.6161 T4         2 LUT      0.089537
    190 H372       87.2866   62.5523   34.7676 T4         2 LUT      0.089537
    191 H371       86.3452   63.2423   35.9821 T4         2 LUT      0.089537
    192 H363       87.2040   66.0256   35.6936 T4         2 LUT      0.089537
    193 H362       88.4585   65.1631   34.9500 T4         2 LUT      0.089537
    194 H361       87.5117   66.4308   34.0618 T4         2 LUT      0.089537
    195 H222       87.9727   63.7810   32.9396 U2         2 LUT      0.127376
    196 H221       86.3863   63.3059   32.3509 U2         2 LUT      0.127376
    197 H203       71.3654   62.8110   39.9462 R7         2 LUT      0.087068
    198 H202       72.8810   62.1640   39.4550 R7         2 LUT      0.087068
    199 H201       71.8137   61.1505   40.4826 R7         2 LUT      0.087068
    200 H193       67.4618   60.6641   43.4137 R4         2 LUT      0.089716
    201 H192       68.9949   60.0901   42.7568 R4         2 LUT      0.089716
    202 H191       68.2126   59.5150   44.3675 R4         2 LUT      0.089716
    203 H183       65.5962   62.5585   45.3680 R1         2 LUT      0.094572
    204 H182       64.5555   63.8307   46.1565 R1         2 LUT      0.094572
    205 H181       66.3523   63.9248   46.1907 R1         2 LUT      0.094572
    206 H173       69.1738   60.8595   48.6680 T4         2 LUT      0.093752
    207 H172       68.6143   60.3318   50.3098 T4         2 LUT      0.093752
    208 H171       68.2419   59.4409   48.7027 T4         2 LUT      0.093752
    209 H163       66.2910   59.5174   50.3963 T4         2 LUT      0.093752
    210 H162       65.8380   60.9259   51.0596 T4         2 LUT      0.093752
    211 H161       65.0468   60.3170   49.5834 T4         2 LUT      0.093752
    212 HO3        65.5916   65.4372   50.4220 Q1         2 LUT      0.300121
    213 H8         69.1220   62.3266   46.4151 U7         2 LUT      0.080784
    214 H7         66.9613   60.4042   45.7777 U6         2 LUT      0.042190
    215 H42        64.0940   62.3909   48.9467 U5         2 LUT      0.145166
    216 H41        64.2382   63.9315   48.3451 U5         2 LUT      0.145166
    217 H35        76.4342   64.8327   41.6998 T3         2 LUT      0.077919
    218 H34        77.1251   63.7259   39.0189 T2         2 LUT      0.073626
    219 H32        79.0323   64.1857   37.8409 T1         2 LUT      0.092510
    220 H31        81.0733   66.0204   39.1928 U9         2 LUT      0.070048
    221 H30        80.7022   64.7152   36.3864 U8         2 LUT      0.085442
    222 H3         65.3738   62.9368   50.7258 U3         2 LUT     -0.031596
    223 H28        82.4020   64.7325   34.7968 U7         2 LUT      0.084728
    224 H27        85.0174   66.1343   35.7072 U6         2 LUT      0.087291
    225 H26        84.4680   64.0689   33.5929 Q6         2 LUT      0.075325
    226 H24        85.8236   66.9619   31.0665 Q5         2 LUT      0.094482
    227 H23        87.8092   65.8440   32.0513 U3         2 LUT     -0.024869
    228 H22        67.4002   62.4617   50.8421 U2         2 LUT      0.127376
    229 H21        67.8040   63.3035   49.3191 U2         2 LUT      0.127376
    230 H15        74.7973   62.9912   39.6355 T3         2 LUT      0.093200
    231 H14        74.0353   64.0818   42.4239 T2         2 LUT      0.068865
    232 H12        72.1829   63.6147   43.6024 T1         2 LUT      0.095507
    233 H11        70.5627   61.4402   42.1433 U9         2 LUT      0.068930
    234 H10        70.2248   63.1278   44.8335 U8         2 LUT      0.083911
    235 H1         86.7126   64.3243   29.9734 Q1         2 LUT      0.297311
@<TRIPOS>BOND
    1     6     1 1
    2     7     2 1
    3     8     3 1
    4     9     4 1
    5    11     4 1
    6    12     6 1
    7    13     9 1
    8    16     9 1
    9    25     5 1
   10    25    16 1
   11    26    10 1
   12    26    17 1
   13    27    18 1
   14    28    14 1
   15    28    19 1
   16    29    12 1
   17    30    13 1
   18    31    24 1
   19    32     1 1
   20    32    25 1
   21    33    21 1
   22    33    26 1
   23    34    22 1
   24    34    27 1
   25    35    23 1
   26    35    28 1
   27    36    12 1
   28    36    24 1
   29    37    13 1
   30    37    15 1
   31    38    31 1
   32    39    20 1
   33    39    32 1
   34    40     2 1
   35    40    33 1
   36    41     3 1
   37    41    34 1
   38    42     4 1
   39    42    35 1
   40    43    38 1
   41    44     5 1
   42    44    17 1
   43    44    39 1
   44    45    10 1
   45    45    18 1
   46    45    40 1
   47    46    19 1
   48    46    41 1
   49    47    14 1
   50    47    16 1
   51    47    42 1
   52    48    38 1
   53    49    48 1
   54    50    49 1
   55    51    50 1
   56    52    51 1
   57    53    51 1
   58    54    53 1
   59    55    54 1
   60    56    55 1
   61    57    56 1
   62    58    56 1
   63    59    58 1
   64    60    59 1
   65    61    60 1
   66    62    61 1
   67    63    61 1
   68    64    27 1
   69    64    46 1
   70    65     5 1
   71    65    10 1
   72    65    64 1
   73    65    14 1
   74    66    23 1
   75    67    23 1
   76    68    23 1
   77    69    22 1
   78    70    22 1
   79    71    22 1
   80    72    21 1
   81    73    21 1
   82    74    21 1
   83    75    20 1
   84    76    20 1
   85    77    20 1
   86    78    15 1
   87    79    15 1
   88    80    15 1
   89    81     8 1
   90    82     8 1
   91    83     8 1
   92    84     7 1
   93    85     7 1
   94    86     6 1
   95    87     6 1
   96    88     3 1
   97    89     3 1
   98    90     1 1
   99    91     1 1
  100    92    63 1
  101    93    63 1
  102    94    63 1
  103    95    62 1
  104    96    62 1
  105    97    62 1
  106    98    60 1
  107    99    60 1
  108   100    59 1
  109   101    59 1
  110   102    58 1
  111   103    58 1
  112   104    57 1
  113   105    57 1
  114   106    57 1
  115   107    55 1
  116   108    55 1
  117   109    54 1
  118   110    54 1
  119   111    53 1
  120   112    53 1
  121   113    19 1
  122   114    18 1
  123   115    17 1
  124   116     9 1
  125   117     2 1
  126   118    52 1
  127   119    52 1
  128   120    52 1
  129   121    51 1
  130   122    50 1
  131   123    50 1
  132   124    49 1
  133   125    49 1
  134   126    48 1
  135   127    48 1
  136   128    43 1
  137   129    43 1
  138   130    43 1
  139   131    39 1
  140   132    32 1
  141   133    31 1
  142   134    61 1
  143   135    56 1
  144   136    24 1
  145   137    24 1
  146   139   138 1
  147   140   139 1
  148   141   140 1
  149   142   140 1
  150   143   142 1
  151   144   138 1
  152   144   143 1
  153   145   144 1
  154   146   145 1
  155   147   146 1
  156   148   147 1
  157   149   148 1
  158   150   149 1
  159   151   150 1
  160   152   151 1
  161   153   152 1
  162   154   138 1
  163   155   138 1
  164   156   143 1
  165   157   147 1
  166   158   151 1
  167   160   159 1
  168   161   160 1
  169   162   161 1
  170   163   161 1
  171   164   163 1
  172   165   159 1
  173   165   164 1
  174   166   165 1
  175   167   166 1
  176   168   167 1
  177   169   168 1
  178   170   169 1
  179   171   170 1
  180   172   171 1
  181   173   172 1
  182   174   153 1
  183   174   173 1
  184   175   159 1
  185   176   159 1
  186   177   164 1
  187   178   168 1
  188   179   172 1
  189   180   179 1
  190   181   179 1
  191   182   179 1
  192   183   178 1
  193   184   178 1
  194   185   178 1
  195   186   177 1
  196   187   177 1
  197   188   177 1
  198   189   176 1
  199   190   176 1
  200   191   176 1
  201   192   175 1
  202   193   175 1
  203   194   175 1
  204   195   160 1
  205   196   160 1
  206   197   158 1
  207   198   158 1
  208   199   158 1
  209   200   157 1
  210   201   157 1
  211   202   157 1
  212   203   156 1
  213   204   156 1
  214   205   156 1
  215   206   155 1
  216   207   155 1
  217   208   155 1
  218   209   154 1
  219   210   154 1
  220   211   154 1
  221   212   141 1
  222   213   146 1
  223   214   145 1
  224   215   142 1
  225   216   142 1
  226   217   174 1
  227   218   173 1
  228   219   171 1
  229   220   170 1
  230   221   169 1
  231   222   140 1
  232   223   167 1
  233   224   166 1
  234   225   165 1
  235   226   163 1
  236   227   161 1
  237   228   139 1
  238   229   139 1
  239   230   153 1
  240   231   152 1
  241   232   150 1
  242   233   149 1
  243   234   148 1
  244   235   162 1
  245   65    153 1
  246   65    174 1
@<TRIPOS>SUBSTRUCTURE
      1 CLA               1 ****               0 ****  **** 
      2 LUT             138 ****               0 ****  **** 
