@<TRIPOS>MOLECULE
Cpptraj generated mol2 file.
  235   246     2     0     0
SMALL
USER_CHARGES


@<TRIPOS>ATOM
      1 CAA        77.5471   57.0227   33.6148 a2         1 CLA     -0.055900
      2 CAB        77.5568   60.7718   42.5241 c8         1 CLA     -0.148500
      3 CAC        70.6906   56.9261   42.1819 a2         1 CLA     -0.012600
      4 CAD        73.5086   54.4390   34.9703 ck         1 CLA      0.398800
      5 NA         76.6013   57.4456   37.0314 ns         1 CLA     -0.225500
      6 CBA        78.7786   56.8392   32.7074 a2         1 CLA     -0.135000
      7 CBB        78.7135   61.0941   43.1409 c0         1 CLA     -0.395200
      8 CBC        70.7058   55.4910   42.6592 a3         1 CLA     -0.037700
      9 CBD        74.9259   54.8908   34.6421 a1         1 CLA     -0.053900
     10 NB         76.5088   58.9164   39.5356 nm         1 CLA     -0.295700
     11 OBD        72.8344   53.8241   34.2264 o2         1 CLA     -0.494600
     12 CGA        79.2707   55.3938   32.4742 c4         1 CLA      0.827000
     13 CGD        75.8105   53.6851   34.4834 c4         1 CLA      0.655300
     14 ND         73.9568   56.5181   37.7981 nm         1 CLA     -0.291600
     15 CED        77.0949   52.1292   35.6750 a3         1 CLA      0.005400
     16 CHA        75.2960   55.8398   35.8044 cs         1 CLA     -0.123800
     17 CHB        78.3819   58.8858   37.9790 aa         1 CLA     -0.291900
     18 CHC        75.3986   58.9673   41.7265 aa         1 CLA     -0.090400
     19 CHD        72.0421   56.4483   39.3519 aa         1 CLA     -0.052000
     20 CMA        79.9748   56.8623   36.3056 a3         1 CLA     -0.230700
     21 CMB        79.7232   60.8489   39.8712 a3         1 CLA     -0.180800
     22 CMC        72.8697   58.6998   43.9087 a3         1 CLA     -0.134000
     23 CMD        70.6853   54.5390   37.1304 a3         1 CLA     -0.141100
     24 C1         80.8475   53.7314   33.3578 a2         1 CLA      0.023000
     25 C1A        76.4979   56.5730   36.0339 ac         1 CLA     -0.015100
     26 C1B        77.8304   59.2858   39.1661 cr         1 CLA      0.054700
     27 C1C        74.1423   58.3120   41.5229 cn         1 CLA     -0.005600
     28 C1D        72.6706   56.0658   38.1152 ap         1 CLA     -0.047300
     29 O1A        78.8926   54.6125   31.6024 o2         1 CLA     -0.610800
     30 O1D        76.0730   53.1986   33.4040 o2         1 CLA     -0.558200
     31 C2         81.7205   53.6409   34.5809 c8         1 CLA     -0.325100
     32 C2A        77.7393   56.5337   35.1097 a1         1 CLA      0.098600
     33 C2B        78.4146   60.1422   40.1067 cb         1 CLA      0.088500
     34 C2C        72.9762   58.1475   42.4337 cb         1 CLA      0.053700
     35 C2D        72.1096   55.2060   37.1454 cb         1 CLA      0.058900
     36 O2A        80.1732   54.9989   33.4380 o1         1 CLA     -0.437200
     37 O2D        76.2279   53.2784   35.7280 o1         1 CLA     -0.357600
     38 C3         82.2624   52.5333   35.0922 c5         1 CLA      0.031200
     39 C3A        78.6091   57.5397   35.8297 a1         1 CLA      0.166800
     40 C3B        77.5253   60.1783   41.1687 cb         1 CLA      0.035000
     41 C3C        72.0382   57.3853   41.6691 cb         1 CLA     -0.089900
     42 C3D        73.1235   55.0630   36.2048 cb         1 CLA     -0.035900
     43 C4         81.4760   51.5680   36.0165 a3         1 CLA     -0.053300
     44 C4A        77.8035   57.9924   37.0180 ac         1 CLA      0.001800
     45 C4B        76.4362   59.2680   40.8308 cn         1 CLA     -0.020900
     46 C4C        72.6038   57.1641   40.3504 cr         1 CLA     -0.044400
     47 C4D        74.1982   55.8699   36.6668 c6         1 CLA     -0.046000
     48 C5         83.7088   52.2200   34.7343 a2         1 CLA     -0.070400
     49 C6         84.7805   53.3633   34.9563 a2         1 CLA      0.043900
     50 C7         84.8427   53.8805   36.4997 a2         1 CLA     -0.150000
     51 C8         85.4834   55.2416   36.8533 a1         1 CLA      0.064200
     52 C9         86.9381   55.2389   36.5311 a3         1 CLA     -0.259300
     53 C10        85.1883   55.6657   38.3464 a2         1 CLA     -0.071900
     54 C11        83.7538   55.5206   38.8007 a2         1 CLA      0.014500
     55 C12        83.5695   56.2303   40.1204 a2         1 CLA     -0.112100
     56 C13        82.1665   56.1769   40.7650 a1         1 CLA      0.089200
     57 C14        81.0610   57.0713   40.0357 a3         1 CLA     -0.239100
     58 C15        82.2030   56.5566   42.2779 a2         1 CLA     -0.102200
     59 C16        82.7584   58.0232   42.5030 a2         1 CLA      0.023900
     60 C17        82.3752   58.5124   43.9919 a2         1 CLA     -0.105700
     61 C18        82.3767   59.9704   44.2320 a1         1 CLA      0.206800
     62 C19        81.8017   60.3518   45.5844 a3         1 CLA     -0.280100
     63 C20        83.9312   60.3770   44.0355 a3         1 CLA     -0.280100
     64 NC         73.8812   57.7863   40.2929 nx         1 CLA     -0.309200
     65 MG         75.2202   57.8043   38.5703 mg         1 CLA      0.895000
     66 HMD3       70.6630   53.7649   36.3382 dc         1 CLA      0.064300
     67 HMD2       70.4327   54.0755   38.0771 dc         1 CLA      0.064300
     68 HMD1       69.8740   55.2192   37.0351 dc         1 CLA      0.064300
     69 HMC3       71.9173   58.4906   44.3114 dc         1 CLA      0.052100
     70 HMC2       73.6063   58.1874   44.6094 dc         1 CLA      0.052100
     71 HMC1       73.0958   59.7601   43.8793 dc         1 CLA      0.052100
     72 HMB3       80.0725   61.4113   40.7076 dc         1 CLA      0.063600
     73 HMB2       80.4323   60.0433   39.7210 dc         1 CLA      0.063600
     74 HMB1       79.7160   61.4124   38.9153 dc         1 CLA      0.063600
     75 HMA3       80.7028   56.7943   35.4481 dc         1 CLA      0.058300
     76 HMA2       80.4187   57.3797   37.1109 dc         1 CLA      0.058300
     77 HMA1       79.6788   55.9014   36.6952 dc         1 CLA      0.058300
     78 HED3       77.4245   51.9607   36.6951 dc         1 CLA      0.079300
     79 HED2       76.5803   51.2415   35.3345 dc         1 CLA      0.079300
     80 HED1       78.0583   52.2748   35.1567 dc         1 CLA      0.079300
     81 HBC3       69.7532   55.1290   43.1511 dc         1 CLA      0.016300
     82 HBC2       70.9877   54.7784   41.8310 dc         1 CLA      0.016300
     83 HBC1       71.4661   55.5961   43.4824 dc         1 CLA      0.016300
     84 HBB2       78.6167   61.4511   44.1567 da         1 CLA      0.183000
     85 HBB1       79.7784   60.8685   42.8050 da         1 CLA      0.183000
     86 HBA2       78.6124   57.4096   31.8212 dc         1 CLA      0.029400
     87 HBA1       79.6572   57.3850   33.0458 dc         1 CLA      0.029400
     88 HAC2       70.4092   57.5636   42.9756 dc         1 CLA      0.029300
     89 HAC1       69.9454   57.0021   41.3787 dc         1 CLA      0.029300
     90 HAA2       76.8098   56.4129   33.2310 dc         1 CLA      0.028700
     91 HAA1       77.1434   58.0346   33.6057 dc         1 CLA      0.028700
     92 H203       84.0803   61.4276   44.1146 dc         1 CLA      0.065600
     93 H202       84.5201   59.8894   44.8397 dc         1 CLA      0.065600
     94 H201       84.5438   60.1125   43.1738 dc         1 CLA      0.065600
     95 H193       82.0403   59.7030   46.4745 dc         1 CLA      0.065600
     96 H192       82.1327   61.3479   45.8468 dc         1 CLA      0.065600
     97 H191       80.6826   60.4655   45.5028 dc         1 CLA      0.065600
     98 H172       81.3449   58.1299   44.2368 dc         1 CLA      0.027600
     99 H171       83.0235   58.0002   44.6714 dc         1 CLA      0.027600
    100 H162       83.8290   57.9598   42.2632 dc         1 CLA      0.002900
    101 H161       82.4095   58.7225   41.6904 dc         1 CLA      0.002900
    102 H152       81.2686   56.3734   42.7294 dc         1 CLA      0.029100
    103 H151       82.8495   55.8301   42.8231 dc         1 CLA      0.029100
    104 H143       80.6011   56.5545   39.2774 dc         1 CLA      0.063600
    105 H142       80.2950   57.3455   40.7085 dc         1 CLA      0.063600
    106 H141       81.6308   57.9123   39.5750 dc         1 CLA      0.063600
    107 H122       84.2029   55.6358   40.7406 dc         1 CLA      0.032500
    108 H121       84.0031   57.2183   40.1438 dc         1 CLA      0.032500
    109 H112       83.0758   55.8824   38.0138 dc         1 CLA      0.006600
    110 H111       83.5817   54.4096   38.8929 dc         1 CLA      0.006600
    111 H102       85.8083   54.9623   38.9394 dc         1 CLA      0.024100
    112 H101       85.5733   56.7073   38.4812 dc         1 CLA      0.024100
    113 HHD        71.0260   56.0765   39.5409 da         1 CLA      0.174300
    114 HHC        75.4826   59.3390   42.7328 da         1 CLA      0.136800
    115 HHB        79.2941   59.3023   37.6619 da         1 CLA      0.138300
    116 HBD        74.8687   55.2981   33.6761 dc         1 CLA      0.107700
    117 HAB        76.6604   60.9650   43.0022 da         1 CLA      0.155200
    118 H93        87.5409   54.7266   37.3341 dc         1 CLA      0.069500
    119 H92        87.2036   54.9381   35.5368 dc         1 CLA      0.069500
    120 H91        87.1454   56.3072   36.6964 dc         1 CLA      0.069500
    121 H8         84.9185   55.9646   36.2704 dc         1 CLA      0.029300
    122 H72        83.7919   53.9237   36.7988 dc         1 CLA      0.044400
    123 H71        85.3742   53.0709   37.0746 dc         1 CLA      0.044400
    124 H62        85.7415   52.8514   34.6936 dc         1 CLA      0.015600
    125 H61        84.6832   54.1798   34.2677 dc         1 CLA      0.015600
    126 H52        84.0449   51.3310   35.2489 dc         1 CLA      0.033200
    127 H51        83.7028   51.8354   33.7474 dc         1 CLA      0.033200
    128 H43        82.0252   51.4908   36.9046 dc         1 CLA      0.037000
    129 H42        80.4745   52.0048   36.2828 dc         1 CLA      0.037000
    130 H41        81.2081   50.7127   35.4480 dc         1 CLA      0.037000
    131 H3A        79.0701   58.3447   35.2157 dc         1 CLA      0.041100
    132 H2A        78.2658   55.5436   35.0227 dc         1 CLA      0.083100
    133 H2         81.6882   54.4734   35.2286 da         1 CLA      0.180900
    134 H18        81.8104   60.4330   43.4898 dc         1 CLA     -0.003900
    135 H13        81.7816   55.1282   40.6546 dc         1 CLA      0.019700
    136 H12        80.1141   52.9340   33.1370 dc         1 CLA      0.120400
    137 H11        81.6423   53.6671   32.5602 dc         1 CLA      0.120400
    138 C1         68.2024   60.5047   48.7956 Z1         2 LUT      0.509236
    139 C2         66.9513   60.2536   49.7660 Z2         2 LUT     -0.434695
    140 C3         66.1128   61.4587   50.3208 Z3         2 LUT      0.437453
    141 O3         66.5434   61.9583   51.6027 S1         2 LUT     -0.547129
    142 C4         66.3660   62.6586   49.3645 Z4         2 LUT     -0.468603
    143 C5         66.6954   62.2802   47.9790 Z5         2 LUT      0.279246
    144 C6         67.5733   61.3236   47.6443 Z6         2 LUT     -0.305473
    145 C7         67.8099   60.9574   46.2356 Z7         2 LUT      0.069402
    146 C8         69.0030   60.9917   45.7031 Z8         2 LUT     -0.191631
    147 C9         69.3046   60.8349   44.3070 Z9         2 LUT      0.196698
    148 C10        70.4530   61.5520   43.8914 Y1         2 LUT     -0.208611
    149 C11        71.1007   61.4607   42.5903 Y2         2 LUT      0.030784
    150 C12        72.3148   62.1322   42.4043 Y3         2 LUT     -0.220316
    151 C13        73.1368   62.2512   41.2577 Y4         2 LUT      0.215937
    152 C14        74.4044   62.7988   41.3427 Y5         2 LUT     -0.185793
    153 C15        75.4768   62.8931   40.3377 Y6         2 LUT     -0.057835
    154 C16        68.8022   59.1450   48.3261 Y7         2 LUT     -0.405615
    155 C17        69.2940   61.1781   49.6026 Y7         2 LUT     -0.405615
    156 C18        65.9108   63.1111   46.9334 Y9         2 LUT     -0.369639
    157 C19        68.5089   59.8122   43.4597 W1         2 LUT     -0.333362
    158 C20        72.7561   61.3050   40.1514 W2         2 LUT     -0.323439
    159 C21        87.2517   64.2632   34.5883 Z1         2 LUT      0.406104
    160 C22        87.9503   63.7799   33.3113 Z2         2 LUT     -0.404965
    161 C23        88.1921   64.8007   32.1785 Z3         2 LUT      0.391255
    162 O23        88.6422   64.1602   30.9887 S1         2 LUT     -0.528210
    163 C24        86.9195   65.7511   32.1266 W6         2 LUT     -0.258361
    164 C25        85.8232   65.7074   32.9316 Z5         2 LUT      0.133546
    165 C26        85.7867   64.7149   34.1665 W8         2 LUT     -0.147008
    166 C27        85.0585   65.2298   35.3679 Z7         2 LUT      0.023843
    167 C28        83.8478   64.8946   35.7753 Z8         2 LUT     -0.216987
    168 C29        83.0043   65.5287   36.8927 Z9         2 LUT      0.206524
    169 C30        81.8821   64.8428   37.2752 Y1         2 LUT     -0.215556
    170 C31        80.9760   65.0374   38.3855 Y2         2 LUT      0.025142
    171 C32        79.8297   64.3314   38.5264 Y3         2 LUT     -0.212209
    172 C33        78.8682   64.4460   39.6654 Y4         2 LUT      0.240937
    173 C34        77.7205   63.6511   39.7028 Y5         2 LUT     -0.218862
    174 C35        76.6187   63.5919   40.6158 Y6         2 LUT     -0.023547
    175 C36        88.0144   65.4749   35.1598 Y7         2 LUT     -0.393485
    176 C37        87.2487   63.0271   35.5478 Y7         2 LUT     -0.393485
    177 C38        84.7105   66.6487   32.7833 Y9         2 LUT     -0.387526
    178 C39        83.5734   66.6562   37.6801 W1         2 LUT     -0.322618
    179 C40        79.2731   65.4362   40.7443 W2         2 LUT     -0.358472
    180 H403       79.5653   66.3888   40.3274 R7         2 LUT      0.097720
    181 H402       78.4520   65.6002   41.5028 R7         2 LUT      0.097720
    182 H401       80.1375   65.0274   41.4370 R7         2 LUT      0.097720
    183 H393       82.6472   67.1328   38.1556 R4         2 LUT      0.082505
    184 H392       84.3285   66.4077   38.4671 R4         2 LUT      0.082505
    185 H391       83.9661   67.4889   37.0281 R4         2 LUT      0.082505
    186 H383       84.9873   67.5378   32.2479 R1         2 LUT      0.104030
    187 H382       83.8729   66.1723   32.2812 R1         2 LUT      0.104030
    188 H381       84.3324   66.9297   33.7600 R1         2 LUT      0.104030
    189 H373       86.5838   62.2511   35.2320 T4         2 LUT      0.089537
    190 H372       88.2596   62.6850   35.7640 T4         2 LUT      0.089537
    191 H371       86.7455   63.3190   36.4537 T4         2 LUT      0.089537
    192 H363       89.0755   65.1603   35.3854 T4         2 LUT      0.089537
    193 H362       88.2558   66.2630   34.3991 T4         2 LUT      0.089537
    194 H361       87.7187   65.8483   36.1037 T4         2 LUT      0.089537
    195 H222       88.9910   63.4350   33.5643 U2         2 LUT      0.127376
    196 H221       87.5241   62.8516   32.8895 U2         2 LUT      0.127376
    197 H203       72.2371   60.4462   40.5001 R7         2 LUT      0.087068
    198 H202       72.1883   61.8705   39.4650 R7         2 LUT      0.087068
    199 H201       73.5325   60.7129   39.5882 R7         2 LUT      0.087068
    200 H193       67.5191   60.1927   43.2446 R4         2 LUT      0.089716
    201 H192       68.9448   59.7755   42.4517 R4         2 LUT      0.089716
    202 H191       68.3450   58.8276   43.8744 R4         2 LUT      0.089716
    203 H183       66.4738   63.7831   46.3631 R1         2 LUT      0.094572
    204 H182       65.3820   62.5529   46.1387 R1         2 LUT      0.094572
    205 H181       64.9688   63.5424   47.4003 R1         2 LUT      0.094572
    206 H173       69.6186   60.5580   50.4876 T4         2 LUT      0.093752
    207 H172       70.0984   61.3876   48.8862 T4         2 LUT      0.093752
    208 H171       69.0331   62.1517   50.0022 T4         2 LUT      0.093752
    209 H163       69.0340   58.4869   49.1946 T4         2 LUT      0.093752
    210 H162       68.1196   58.5821   47.7135 T4         2 LUT      0.093752
    211 H161       69.7070   59.2323   47.6621 T4         2 LUT      0.093752
    212 HO3        66.3493   61.3037   52.3258 Q1         2 LUT      0.300121
    213 H8         69.8925   61.3229   46.2624 U7         2 LUT      0.080784
    214 H7         66.9294   60.7027   45.6696 U6         2 LUT      0.042190
    215 H42        65.5634   63.3960   49.5037 U5         2 LUT      0.145166
    216 H41        67.1663   63.2767   49.6698 U5         2 LUT      0.145166
    217 H35        76.7010   64.1353   41.5356 T3         2 LUT      0.077919
    218 H34        77.7757   63.1683   38.7190 T2         2 LUT      0.073626
    219 H32        79.6862   63.4970   37.8491 T1         2 LUT      0.092510
    220 H31        81.2098   65.9169   39.0241 U9         2 LUT      0.070048
    221 H30        81.4968   63.9922   36.7582 U8         2 LUT      0.085442
    222 H3         65.0650   61.2018   50.4051 U3         2 LUT     -0.031596
    223 H28        83.3805   63.9494   35.4097 U7         2 LUT      0.084728
    224 H27        85.4183   66.0594   35.9602 U6         2 LUT      0.087291
    225 H26        85.2080   63.8427   33.8652 Q6         2 LUT      0.075325
    226 H24        86.9932   66.4082   31.2998 Q5         2 LUT      0.094482
    227 H23        89.0554   65.4301   32.5075 U3         2 LUT     -0.024869
    228 H22        66.2455   59.6526   49.2287 U2         2 LUT      0.127376
    229 H21        67.3342   59.7747   50.6084 U2         2 LUT      0.127376
    230 H15        75.2455   62.2946   39.4173 T3         2 LUT      0.093200
    231 H14        74.6337   63.2352   42.3175 T2         2 LUT      0.068865
    232 H12        72.8257   62.5988   43.2875 T1         2 LUT      0.095507
    233 H11        70.6467   60.9090   41.7572 U9         2 LUT      0.068930
    234 H10        70.9103   62.2189   44.6397 U8         2 LUT      0.083911
    235 H1         88.0110   64.1921   30.2680 Q1         2 LUT      0.297311
@<TRIPOS>BOND
    1     6     1 1
    2     7     2 1
    3     8     3 1
    4     9     4 1
    5    11     4 1
    6    12     6 1
    7    13     9 1
    8    16     9 1
    9    25     5 1
   10    25    16 1
   11    26    10 1
   12    26    17 1
   13    27    18 1
   14    28    14 1
   15    28    19 1
   16    29    12 1
   17    30    13 1
   18    31    24 1
   19    32     1 1
   20    32    25 1
   21    33    21 1
   22    33    26 1
   23    34    22 1
   24    34    27 1
   25    35    23 1
   26    35    28 1
   27    36    12 1
   28    36    24 1
   29    37    13 1
   30    37    15 1
   31    38    31 1
   32    39    20 1
   33    39    32 1
   34    40     2 1
   35    40    33 1
   36    41     3 1
   37    41    34 1
   38    42     4 1
   39    42    35 1
   40    43    38 1
   41    44     5 1
   42    44    17 1
   43    44    39 1
   44    45    10 1
   45    45    18 1
   46    45    40 1
   47    46    19 1
   48    46    41 1
   49    47    14 1
   50    47    16 1
   51    47    42 1
   52    48    38 1
   53    49    48 1
   54    50    49 1
   55    51    50 1
   56    52    51 1
   57    53    51 1
   58    54    53 1
   59    55    54 1
   60    56    55 1
   61    57    56 1
   62    58    56 1
   63    59    58 1
   64    60    59 1
   65    61    60 1
   66    62    61 1
   67    63    61 1
   68    64    27 1
   69    64    46 1
   70    65     5 1
   71    65    10 1
   72    65    64 1
   73    65    14 1
   74    66    23 1
   75    67    23 1
   76    68    23 1
   77    69    22 1
   78    70    22 1
   79    71    22 1
   80    72    21 1
   81    73    21 1
   82    74    21 1
   83    75    20 1
   84    76    20 1
   85    77    20 1
   86    78    15 1
   87    79    15 1
   88    80    15 1
   89    81     8 1
   90    82     8 1
   91    83     8 1
   92    84     7 1
   93    85     7 1
   94    86     6 1
   95    87     6 1
   96    88     3 1
   97    89     3 1
   98    90     1 1
   99    91     1 1
  100    92    63 1
  101    93    63 1
  102    94    63 1
  103    95    62 1
  104    96    62 1
  105    97    62 1
  106    98    60 1
  107    99    60 1
  108   100    59 1
  109   101    59 1
  110   102    58 1
  111   103    58 1
  112   104    57 1
  113   105    57 1
  114   106    57 1
  115   107    55 1
  116   108    55 1
  117   109    54 1
  118   110    54 1
  119   111    53 1
  120   112    53 1
  121   113    19 1
  122   114    18 1
  123   115    17 1
  124   116     9 1
  125   117     2 1
  126   118    52 1
  127   119    52 1
  128   120    52 1
  129   121    51 1
  130   122    50 1
  131   123    50 1
  132   124    49 1
  133   125    49 1
  134   126    48 1
  135   127    48 1
  136   128    43 1
  137   129    43 1
  138   130    43 1
  139   131    39 1
  140   132    32 1
  141   133    31 1
  142   134    61 1
  143   135    56 1
  144   136    24 1
  145   137    24 1
  146   139   138 1
  147   140   139 1
  148   141   140 1
  149   142   140 1
  150   143   142 1
  151   144   138 1
  152   144   143 1
  153   145   144 1
  154   146   145 1
  155   147   146 1
  156   148   147 1
  157   149   148 1
  158   150   149 1
  159   151   150 1
  160   152   151 1
  161   153   152 1
  162   154   138 1
  163   155   138 1
  164   156   143 1
  165   157   147 1
  166   158   151 1
  167   160   159 1
  168   161   160 1
  169   162   161 1
  170   163   161 1
  171   164   163 1
  172   165   159 1
  173   165   164 1
  174   166   165 1
  175   167   166 1
  176   168   167 1
  177   169   168 1
  178   170   169 1
  179   171   170 1
  180   172   171 1
  181   173   172 1
  182   174   153 1
  183   174   173 1
  184   175   159 1
  185   176   159 1
  186   177   164 1
  187   178   168 1
  188   179   172 1
  189   180   179 1
  190   181   179 1
  191   182   179 1
  192   183   178 1
  193   184   178 1
  194   185   178 1
  195   186   177 1
  196   187   177 1
  197   188   177 1
  198   189   176 1
  199   190   176 1
  200   191   176 1
  201   192   175 1
  202   193   175 1
  203   194   175 1
  204   195   160 1
  205   196   160 1
  206   197   158 1
  207   198   158 1
  208   199   158 1
  209   200   157 1
  210   201   157 1
  211   202   157 1
  212   203   156 1
  213   204   156 1
  214   205   156 1
  215   206   155 1
  216   207   155 1
  217   208   155 1
  218   209   154 1
  219   210   154 1
  220   211   154 1
  221   212   141 1
  222   213   146 1
  223   214   145 1
  224   215   142 1
  225   216   142 1
  226   217   174 1
  227   218   173 1
  228   219   171 1
  229   220   170 1
  230   221   169 1
  231   222   140 1
  232   223   167 1
  233   224   166 1
  234   225   165 1
  235   226   163 1
  236   227   161 1
  237   228   139 1
  238   229   139 1
  239   230   153 1
  240   231   152 1
  241   232   150 1
  242   233   149 1
  243   234   148 1
  244   235   162 1
  245   65    153 1
  246   65    174 1
@<TRIPOS>SUBSTRUCTURE
      1 CLA               1 ****               0 ****  **** 
      2 LUT             138 ****               0 ****  **** 
