@<TRIPOS>MOLECULE
Cpptraj generated mol2 file.
  235   246     2     0     0
SMALL
USER_CHARGES


@<TRIPOS>ATOM
      1 CAA        77.5119   58.6574   34.3431 a2         1 CLA     -0.055900
      2 CAB        77.5403   62.2320   43.5692 c8         1 CLA     -0.148500
      3 CAC        70.7958   57.7250   43.0342 a2         1 CLA     -0.012600
      4 CAD        73.6790   55.5483   35.6824 ck         1 CLA      0.398800
      5 NA         76.6354   58.8541   37.8789 ns         1 CLA     -0.225500
      6 CBA        78.6021   58.5431   33.2620 a2         1 CLA     -0.135000
      7 CBB        76.5624   62.8945   44.2681 c0         1 CLA     -0.395200
      8 CBC        71.1387   56.2911   43.3735 a3         1 CLA     -0.037700
      9 CBD        75.1179   56.2428   35.2716 a1         1 CLA     -0.053900
     10 NB         76.3844   60.3579   40.4831 nm         1 CLA     -0.295700
     11 OBD        73.1544   54.6857   34.9388 o2         1 CLA     -0.494600
     12 CGA        79.3496   57.1314   33.1323 c4         1 CLA      0.827000
     13 CGD        76.1648   55.2452   35.1090 c4         1 CLA      0.655300
     14 ND         73.9583   57.7367   38.3965 nm         1 CLA     -0.291600
     15 CED        77.6172   53.6957   36.3419 a3         1 CLA      0.005400
     16 CHA        75.4457   57.2181   36.4523 cs         1 CLA     -0.123800
     17 CHB        78.2340   60.3908   38.9240 aa         1 CLA     -0.291900
     18 CHC        74.9734   60.6304   42.4047 aa         1 CLA     -0.090400
     19 CHD        71.9880   57.6208   40.0173 aa         1 CLA     -0.052000
     20 CMA        79.9814   58.5533   37.2332 a3         1 CLA     -0.230700
     21 CMB        79.7427   62.0642   41.3072 a3         1 CLA     -0.180800
     22 CMC        72.8270   59.7005   44.5293 a3         1 CLA     -0.134000
     23 CMD        70.9346   55.6704   37.8005 a3         1 CLA     -0.141100
     24 C1         80.7283   55.4884   34.2739 a2         1 CLA      0.023000
     25 C1A        76.5351   58.0841   36.6770 ac         1 CLA     -0.015100
     26 C1B        77.6456   60.8088   40.1285 cr         1 CLA      0.054700
     27 C1C        73.8859   59.7940   42.1142 cn         1 CLA     -0.005600
     28 C1D        72.6820   57.2514   38.7690 ap         1 CLA     -0.047300
     29 O1A        79.0954   56.2952   32.3113 o2         1 CLA     -0.610800
     30 O1D        76.6805   55.0549   34.0298 o2         1 CLA     -0.558200
     31 C2         81.4872   55.2569   35.5367 c8         1 CLA     -0.325100
     32 C2A        77.8200   58.2130   35.8408 a1         1 CLA      0.098600
     33 C2B        78.2773   61.4876   41.2459 cb         1 CLA      0.088500
     34 C2C        72.8240   59.4196   43.0346 cb         1 CLA      0.053700
     35 C2D        72.2302   56.3194   37.7987 cb         1 CLA      0.058900
     36 O2A        80.0782   56.8493   34.2141 o1         1 CLA     -0.437200
     37 O2D        76.4924   54.6008   36.2792 o1         1 CLA     -0.357600
     38 C3         82.1425   54.1294   35.9697 c5         1 CLA      0.031200
     39 C3A        78.7229   59.2393   36.6553 a1         1 CLA      0.166800
     40 C3B        77.3171   61.5602   42.2758 cb         1 CLA      0.035000
     41 C3C        71.9766   58.5266   42.3944 cb         1 CLA     -0.089900
     42 C3D        73.2972   56.2388   36.8773 cb         1 CLA     -0.035900
     43 C4         81.4327   53.0352   36.7559 a3         1 CLA     -0.053300
     44 C4A        77.7950   59.5203   37.8818 ac         1 CLA      0.001800
     45 C4B        76.1312   60.9035   41.7003 cn         1 CLA     -0.020900
     46 C4C        72.5027   58.4500   41.0235 cr         1 CLA     -0.044400
     47 C4D        74.3068   57.1137   37.3253 c6         1 CLA     -0.046000
     48 C5         83.6458   53.9856   35.8853 a2         1 CLA     -0.070400
     49 C6         84.4729   55.2236   36.2289 a2         1 CLA      0.043900
     50 C7         84.5073   55.4495   37.7026 a2         1 CLA     -0.150000
     51 C8         85.2743   56.6952   38.2170 a1         1 CLA      0.064200
     52 C9         86.8543   56.5200   37.9932 a3         1 CLA     -0.259300
     53 C10        85.0968   56.9354   39.7259 a2         1 CLA     -0.071900
     54 C11        83.6686   57.2242   40.1670 a2         1 CLA      0.014500
     55 C12        83.7262   58.1266   41.4456 a2         1 CLA     -0.112100
     56 C13        84.2793   57.5246   42.8278 a1         1 CLA      0.089200
     57 C14        83.4510   56.3611   43.4206 a3         1 CLA     -0.239100
     58 C15        84.5562   58.6338   43.8441 a2         1 CLA     -0.102200
     59 C16        83.2674   59.2845   44.4596 a2         1 CLA      0.023900
     60 C17        83.5245   60.5603   45.3044 a2         1 CLA     -0.105700
     61 C18        82.2463   61.0535   46.0194 a1         1 CLA      0.206800
     62 C19        82.5958   62.2535   46.9722 a3         1 CLA     -0.280100
     63 C20        81.1199   61.3461   45.0685 a3         1 CLA     -0.280100
     64 NC         73.7160   59.1005   40.9520 nx         1 CLA     -0.309200
     65 MG         75.0808   59.1222   39.2747 mg         1 CLA      0.895000
     66 HMD3       70.0801   56.3538   37.5766 dc         1 CLA      0.064300
     67 HMD2       70.8232   54.8858   37.0285 dc         1 CLA      0.064300
     68 HMD1       70.8342   55.2530   38.8023 dc         1 CLA      0.064300
     69 HMC3       73.7979   60.0956   44.9215 dc         1 CLA      0.052100
     70 HMC2       72.0741   60.4159   44.7295 dc         1 CLA      0.052100
     71 HMC1       72.6421   58.7474   45.0217 dc         1 CLA      0.052100
     72 HMB3       79.9530   62.6871   40.3873 dc         1 CLA      0.063600
     73 HMB2       79.8863   62.7897   42.1034 dc         1 CLA      0.063600
     74 HMB1       80.4370   61.2255   41.4080 dc         1 CLA      0.063600
     75 HMA3       79.5990   57.6887   37.8113 dc         1 CLA      0.058300
     76 HMA2       80.6305   58.2696   36.4320 dc         1 CLA      0.058300
     77 HMA1       80.5036   59.2000   37.9492 dc         1 CLA      0.058300
     78 HED3       78.5173   54.3067   36.2382 dc         1 CLA      0.079300
     79 HED2       77.5331   53.0088   37.2082 dc         1 CLA      0.079300
     80 HED1       77.5772   53.0359   35.5459 dc         1 CLA      0.079300
     81 HBC3       71.6108   55.8419   42.4302 dc         1 CLA      0.016300
     82 HBC2       71.7799   56.2510   44.2738 dc         1 CLA      0.016300
     83 HBC1       70.2213   55.7108   43.6414 dc         1 CLA      0.016300
     84 HBB2       76.8246   63.4364   45.1896 da         1 CLA      0.183000
     85 HBB1       75.5557   63.0626   43.9039 da         1 CLA      0.183000
     86 HBA2       78.0285   58.8201   32.3513 dc         1 CLA      0.029400
     87 HBA1       79.4059   59.3471   33.3536 dc         1 CLA      0.029400
     88 HAC2       70.3962   58.2199   43.9581 dc         1 CLA      0.029300
     89 HAC1       69.9506   57.7049   42.3200 dc         1 CLA      0.029300
     90 HAA2       76.7308   58.0177   33.9575 dc         1 CLA      0.028700
     91 HAA1       77.1192   59.6904   34.5658 dc         1 CLA      0.028700
     92 H203       81.2954   62.0755   44.3745 dc         1 CLA      0.065600
     93 H202       80.8166   60.4648   44.5172 dc         1 CLA      0.065600
     94 H201       80.2908   61.5355   45.6957 dc         1 CLA      0.065600
     95 H193       82.9568   63.0887   46.3874 dc         1 CLA      0.065600
     96 H192       81.7499   62.6127   47.5480 dc         1 CLA      0.065600
     97 H191       83.4136   61.8680   47.5906 dc         1 CLA      0.065600
     98 H172       84.4060   60.4075   45.9010 dc         1 CLA      0.027600
     99 H171       83.8582   61.3228   44.5612 dc         1 CLA      0.027600
    100 H162       82.4998   59.3518   43.6871 dc         1 CLA      0.002900
    101 H161       82.9815   58.5166   45.1224 dc         1 CLA      0.002900
    102 H152       85.2181   58.2355   44.6306 dc         1 CLA      0.029100
    103 H151       85.1282   59.5159   43.3180 dc         1 CLA      0.029100
    104 H143       83.9301   56.1570   44.4208 dc         1 CLA      0.063600
    105 H142       82.3481   56.5843   43.5362 dc         1 CLA      0.063600
    106 H141       83.3686   55.4959   42.7571 dc         1 CLA      0.063600
    107 H122       84.2755   58.9478   41.1271 dc         1 CLA      0.032500
    108 H121       82.6623   58.3570   41.6442 dc         1 CLA      0.032500
    109 H112       83.1257   57.7477   39.4147 dc         1 CLA      0.006600
    110 H111       83.0519   56.3134   40.2967 dc         1 CLA      0.006600
    111 H102       85.4276   56.0674   40.2866 dc         1 CLA      0.024100
    112 H101       85.7149   57.8026   40.0445 dc         1 CLA      0.024100
    113 HHD        71.0451   57.2484   40.3645 da         1 CLA      0.174300
    114 HHC        75.1457   60.9764   43.3958 da         1 CLA      0.136800
    115 HHB        79.1619   60.8661   38.7233 da         1 CLA      0.138300
    116 HBD        74.9317   56.5978   34.2907 dc         1 CLA      0.107700
    117 HAB        78.5582   62.3296   43.9323 da         1 CLA      0.155200
    118 H93        87.2021   55.5644   38.3714 dc         1 CLA      0.069500
    119 H92        87.0120   56.5232   36.9417 dc         1 CLA      0.069500
    120 H91        87.4033   57.2964   38.4908 dc         1 CLA      0.069500
    121 H8         85.0063   57.6221   37.7158 dc         1 CLA      0.029300
    122 H72        83.4709   55.6200   38.0175 dc         1 CLA      0.044400
    123 H71        84.9039   54.6376   38.2814 dc         1 CLA      0.044400
    124 H62        85.4675   55.1871   35.7499 dc         1 CLA      0.015600
    125 H61        84.1080   56.1175   35.8143 dc         1 CLA      0.015600
    126 H52        83.9114   53.1464   36.4890 dc         1 CLA      0.033200
    127 H51        83.8432   53.7204   34.8174 dc         1 CLA      0.033200
    128 H43        80.3242   53.1300   36.6404 dc         1 CLA      0.037000
    129 H42        81.7610   52.0483   36.4037 dc         1 CLA      0.037000
    130 H41        81.7241   53.0737   37.8069 dc         1 CLA      0.037000
    131 H3A        78.8416   60.2230   36.2080 dc         1 CLA      0.041100
    132 H2A        78.1830   57.1761   35.8425 dc         1 CLA      0.083100
    133 H2         81.2733   55.9549   36.3603 da         1 CLA      0.180900
    134 H18        81.8007   60.2591   46.6500 dc         1 CLA     -0.003900
    135 H13        85.2061   57.1785   42.5021 dc         1 CLA      0.019700
    136 H12        79.9866   54.6727   34.1565 dc         1 CLA      0.120400
    137 H11        81.4728   55.4420   33.4672 dc         1 CLA      0.120400
    138 C1         67.5435   61.5184   50.2852 Z1         2 LUT      0.509236
    139 C2         66.2326   61.4229   51.0059 Z2         2 LUT     -0.434695
    140 C3         65.3245   62.6783   51.1230 Z3         2 LUT      0.437453
    141 O3         64.9958   62.9297   52.4603 S1         2 LUT     -0.547129
    142 C4         65.7188   63.8237   50.2520 Z4         2 LUT     -0.468603
    143 C5         66.4463   63.3876   48.9524 Z5         2 LUT      0.279246
    144 C6         67.2663   62.3175   48.8994 Z6         2 LUT     -0.305473
    145 C7         67.6408   61.5861   47.5995 Z7         2 LUT      0.069402
    146 C8         68.4550   62.1771   46.6541 Z8         2 LUT     -0.191631
    147 C9         68.9368   61.7569   45.3245 Z9         2 LUT      0.196698
    148 C10        69.9500   62.4488   44.7504 Y1         2 LUT     -0.208611
    149 C11        70.6032   62.3223   43.5261 Y2         2 LUT      0.030784
    150 C12        71.8320   62.9572   43.2345 Y3         2 LUT     -0.220316
    151 C13        72.6624   62.8338   42.0157 Y4         2 LUT      0.215937
    152 C14        73.7566   63.5948   41.9220 Y5         2 LUT     -0.185793
    153 C15        74.8455   63.6396   40.9947 Y6         2 LUT     -0.057835
    154 C16        67.9330   59.9748   50.1214 Y7         2 LUT     -0.405615
    155 C17        68.4711   62.2035   51.2388 Y7         2 LUT     -0.405615
    156 C18        65.7992   64.0632   47.7670 Y9         2 LUT     -0.369639
    157 C19        68.2647   60.5200   44.8041 W1         2 LUT     -0.333362
    158 C20        71.9501   62.2579   40.8006 W2         2 LUT     -0.323439
    159 C21        86.6300   65.4602   35.1202 Z1         2 LUT      0.406104
    160 C22        87.4384   64.6724   34.0290 Z2         2 LUT     -0.404965
    161 C23        87.2540   65.1224   32.5955 Z3         2 LUT      0.391255
    162 O23        87.2055   64.0080   31.7389 S1         2 LUT     -0.528210
    163 C24        86.0919   66.0588   32.3357 W6         2 LUT     -0.258361
    164 C25        85.0757   66.2173   33.1820 Z5         2 LUT      0.133546
    165 C26        85.1085   65.6335   34.5689 W8         2 LUT     -0.147008
    166 C27        84.1509   66.2015   35.5862 Z7         2 LUT      0.023843
    167 C28        83.1945   65.5958   36.3464 Z8         2 LUT     -0.216987
    168 C29        82.3247   66.1401   37.3990 Z9         2 LUT      0.206524
    169 C30        81.3358   65.3541   37.8835 Y1         2 LUT     -0.215556
    170 C31        80.3850   65.6860   38.9717 Y2         2 LUT      0.025142
    171 C32        79.2346   64.9558   39.1587 Y3         2 LUT     -0.212209
    172 C33        78.2041   65.0606   40.1690 Y4         2 LUT      0.240937
    173 C34        77.0844   64.2891   40.1355 Y5         2 LUT     -0.218862
    174 C35        75.9604   64.4083   41.0423 Y6         2 LUT     -0.023547
    175 C36        87.2850   66.8100   35.4491 Y7         2 LUT     -0.393485
    176 C37        86.5714   64.7802   36.5067 Y7         2 LUT     -0.393485
    177 C38        83.9093   67.0954   32.9233 Y9         2 LUT     -0.387526
    178 C39        82.7169   67.5013   37.9350 W1         2 LUT     -0.322618
    179 C40        78.4912   65.9155   41.3373 W2         2 LUT     -0.358472
    180 H403       77.9145   65.7068   42.2351 R7         2 LUT      0.097720
    181 H402       79.5443   65.6150   41.6142 R7         2 LUT      0.097720
    182 H401       78.5450   66.9557   41.1380 R7         2 LUT      0.097720
    183 H393       82.1739   67.7750   38.8521 R4         2 LUT      0.082505
    184 H392       83.7586   67.4920   38.2347 R4         2 LUT      0.082505
    185 H391       82.5007   68.2201   37.1585 R4         2 LUT      0.082505
    186 H383       83.9023   67.8558   33.7940 R1         2 LUT      0.104030
    187 H382       84.0113   67.7322   32.0195 R1         2 LUT      0.104030
    188 H381       83.0070   66.4877   32.8447 R1         2 LUT      0.104030
    189 H373       86.2219   65.4316   37.3496 T4         2 LUT      0.089537
    190 H372       85.8217   63.9447   36.4221 T4         2 LUT      0.089537
    191 H371       87.5536   64.2868   36.6998 T4         2 LUT      0.089537
    192 H363       88.3388   66.8481   35.8062 T4         2 LUT      0.089537
    193 H362       87.5055   67.4671   34.5062 T4         2 LUT      0.089537
    194 H361       86.6398   67.4494   36.1769 T4         2 LUT      0.089537
    195 H222       88.5017   64.4829   34.2921 U2         2 LUT      0.127376
    196 H221       86.9449   63.6670   33.9497 U2         2 LUT      0.127376
    197 H203       72.4075   62.7699   39.8775 R7         2 LUT      0.087068
    198 H202       72.2168   61.2253   40.6951 R7         2 LUT      0.087068
    199 H201       70.9153   62.5761   40.6832 R7         2 LUT      0.087068
    200 H193       67.6199   60.0378   45.4852 R4         2 LUT      0.089716
    201 H192       67.8829   60.5272   43.7946 R4         2 LUT      0.089716
    202 H191       69.0558   59.8101   44.6324 R4         2 LUT      0.089716
    203 H183       66.4788   64.7549   47.2845 R1         2 LUT      0.094572
    204 H182       65.5979   63.2691   47.0310 R1         2 LUT      0.094572
    205 H181       64.8817   64.6606   47.8856 R1         2 LUT      0.094572
    206 H173       69.4535   62.2547   50.7413 T4         2 LUT      0.093752
    207 H172       68.1751   63.1437   51.6933 T4         2 LUT      0.093752
    208 H171       68.7927   61.5335   52.0665 T4         2 LUT      0.093752
    209 H163       67.9915   59.4179   51.0465 T4         2 LUT      0.093752
    210 H162       67.2411   59.3587   49.4809 T4         2 LUT      0.093752
    211 H161       68.9123   59.8428   49.6173 T4         2 LUT      0.093752
    212 HO3        65.7227   63.3202   52.8844 Q1         2 LUT      0.300121
    213 H8         68.8895   63.0947   47.1384 U7         2 LUT      0.080784
    214 H7         67.3070   60.6168   47.4276 U6         2 LUT      0.042190
    215 H42        64.8427   64.5370   50.0543 U5         2 LUT      0.145166
    216 H41        66.4366   64.4355   50.8080 U5         2 LUT      0.145166
    217 H35        75.9298   65.0919   41.8083 T3         2 LUT      0.077919
    218 H34        76.9134   63.4799   39.4371 T2         2 LUT      0.073626
    219 H32        78.9432   64.1604   38.4678 T1         2 LUT      0.092510
    220 H31        80.6366   66.4660   39.7118 U9         2 LUT      0.070048
    221 H30        81.1239   64.3804   37.3923 U8         2 LUT      0.085442
    222 H3         64.4423   62.2747   50.5037 U3         2 LUT     -0.031596
    223 H28        82.8274   64.5854   35.9829 U7         2 LUT      0.084728
    224 H27        84.3692   67.2552   35.7743 U6         2 LUT      0.087291
    225 H26        84.8175   64.5720   34.3655 Q6         2 LUT      0.075325
    226 H24        86.0154   66.5507   31.3928 Q5         2 LUT      0.094482
    227 H23        88.2244   65.6107   32.4622 U3         2 LUT     -0.024869
    228 H22        65.5949   60.8340   50.3378 U2         2 LUT      0.127376
    229 H21        66.2567   60.8775   51.9927 U2         2 LUT      0.127376
    230 H15        74.7804   62.9005   40.1782 T3         2 LUT      0.093200
    231 H14        73.8728   64.3335   42.7037 T2         2 LUT      0.068865
    232 H12        72.2173   63.5383   44.0783 T1         2 LUT      0.095507
    233 H11        70.1006   61.7000   42.8096 U9         2 LUT      0.068930
    234 H10        70.3684   63.2754   45.2920 U8         2 LUT      0.083911
    235 H1         87.6160   64.1411   30.9239 Q1         2 LUT      0.297311
@<TRIPOS>BOND
    1     6     1 1
    2     7     2 1
    3     8     3 1
    4     9     4 1
    5    11     4 1
    6    12     6 1
    7    13     9 1
    8    16     9 1
    9    25     5 1
   10    25    16 1
   11    26    10 1
   12    26    17 1
   13    27    18 1
   14    28    14 1
   15    28    19 1
   16    29    12 1
   17    30    13 1
   18    31    24 1
   19    32     1 1
   20    32    25 1
   21    33    21 1
   22    33    26 1
   23    34    22 1
   24    34    27 1
   25    35    23 1
   26    35    28 1
   27    36    12 1
   28    36    24 1
   29    37    13 1
   30    37    15 1
   31    38    31 1
   32    39    20 1
   33    39    32 1
   34    40     2 1
   35    40    33 1
   36    41     3 1
   37    41    34 1
   38    42     4 1
   39    42    35 1
   40    43    38 1
   41    44     5 1
   42    44    17 1
   43    44    39 1
   44    45    10 1
   45    45    18 1
   46    45    40 1
   47    46    19 1
   48    46    41 1
   49    47    14 1
   50    47    16 1
   51    47    42 1
   52    48    38 1
   53    49    48 1
   54    50    49 1
   55    51    50 1
   56    52    51 1
   57    53    51 1
   58    54    53 1
   59    55    54 1
   60    56    55 1
   61    57    56 1
   62    58    56 1
   63    59    58 1
   64    60    59 1
   65    61    60 1
   66    62    61 1
   67    63    61 1
   68    64    27 1
   69    64    46 1
   70    65     5 1
   71    65    10 1
   72    65    64 1
   73    65    14 1
   74    66    23 1
   75    67    23 1
   76    68    23 1
   77    69    22 1
   78    70    22 1
   79    71    22 1
   80    72    21 1
   81    73    21 1
   82    74    21 1
   83    75    20 1
   84    76    20 1
   85    77    20 1
   86    78    15 1
   87    79    15 1
   88    80    15 1
   89    81     8 1
   90    82     8 1
   91    83     8 1
   92    84     7 1
   93    85     7 1
   94    86     6 1
   95    87     6 1
   96    88     3 1
   97    89     3 1
   98    90     1 1
   99    91     1 1
  100    92    63 1
  101    93    63 1
  102    94    63 1
  103    95    62 1
  104    96    62 1
  105    97    62 1
  106    98    60 1
  107    99    60 1
  108   100    59 1
  109   101    59 1
  110   102    58 1
  111   103    58 1
  112   104    57 1
  113   105    57 1
  114   106    57 1
  115   107    55 1
  116   108    55 1
  117   109    54 1
  118   110    54 1
  119   111    53 1
  120   112    53 1
  121   113    19 1
  122   114    18 1
  123   115    17 1
  124   116     9 1
  125   117     2 1
  126   118    52 1
  127   119    52 1
  128   120    52 1
  129   121    51 1
  130   122    50 1
  131   123    50 1
  132   124    49 1
  133   125    49 1
  134   126    48 1
  135   127    48 1
  136   128    43 1
  137   129    43 1
  138   130    43 1
  139   131    39 1
  140   132    32 1
  141   133    31 1
  142   134    61 1
  143   135    56 1
  144   136    24 1
  145   137    24 1
  146   139   138 1
  147   140   139 1
  148   141   140 1
  149   142   140 1
  150   143   142 1
  151   144   138 1
  152   144   143 1
  153   145   144 1
  154   146   145 1
  155   147   146 1
  156   148   147 1
  157   149   148 1
  158   150   149 1
  159   151   150 1
  160   152   151 1
  161   153   152 1
  162   154   138 1
  163   155   138 1
  164   156   143 1
  165   157   147 1
  166   158   151 1
  167   160   159 1
  168   161   160 1
  169   162   161 1
  170   163   161 1
  171   164   163 1
  172   165   159 1
  173   165   164 1
  174   166   165 1
  175   167   166 1
  176   168   167 1
  177   169   168 1
  178   170   169 1
  179   171   170 1
  180   172   171 1
  181   173   172 1
  182   174   153 1
  183   174   173 1
  184   175   159 1
  185   176   159 1
  186   177   164 1
  187   178   168 1
  188   179   172 1
  189   180   179 1
  190   181   179 1
  191   182   179 1
  192   183   178 1
  193   184   178 1
  194   185   178 1
  195   186   177 1
  196   187   177 1
  197   188   177 1
  198   189   176 1
  199   190   176 1
  200   191   176 1
  201   192   175 1
  202   193   175 1
  203   194   175 1
  204   195   160 1
  205   196   160 1
  206   197   158 1
  207   198   158 1
  208   199   158 1
  209   200   157 1
  210   201   157 1
  211   202   157 1
  212   203   156 1
  213   204   156 1
  214   205   156 1
  215   206   155 1
  216   207   155 1
  217   208   155 1
  218   209   154 1
  219   210   154 1
  220   211   154 1
  221   212   141 1
  222   213   146 1
  223   214   145 1
  224   215   142 1
  225   216   142 1
  226   217   174 1
  227   218   173 1
  228   219   171 1
  229   220   170 1
  230   221   169 1
  231   222   140 1
  232   223   167 1
  233   224   166 1
  234   225   165 1
  235   226   163 1
  236   227   161 1
  237   228   139 1
  238   229   139 1
  239   230   153 1
  240   231   152 1
  241   232   150 1
  242   233   149 1
  243   234   148 1
  244   235   162 1
  245   65    153 1
  246   65    174 1
@<TRIPOS>SUBSTRUCTURE
      1 CLA               1 ****               0 ****  **** 
      2 LUT             138 ****               0 ****  **** 
