@<TRIPOS>MOLECULE
Cpptraj generated mol2 file.
  235   246     2     0     0
SMALL
USER_CHARGES


@<TRIPOS>ATOM
      1 CAA        79.5198   58.3925   34.7787 a2         1 CLA     -0.055900
      2 CAB        79.0693   62.3971   43.5907 c8         1 CLA     -0.148500
      3 CAC        72.4391   57.8223   43.1077 a2         1 CLA     -0.012600
      4 CAD        75.5137   55.5710   35.9095 ck         1 CLA      0.398800
      5 NA         78.4585   58.6159   38.1718 ns         1 CLA     -0.225500
      6 CBA        80.6390   58.0441   33.8089 a2         1 CLA     -0.135000
      7 CBB        80.1952   62.5244   44.3743 c0         1 CLA     -0.395200
      8 CBC        72.6512   56.3086   43.3618 a3         1 CLA     -0.037700
      9 CBD        76.9949   56.1676   35.6162 a1         1 CLA     -0.053900
     10 NB         77.9981   60.2911   40.6301 nm         1 CLA     -0.295700
     11 OBD        74.8905   54.7570   35.2527 o2         1 CLA     -0.494600
     12 CGA        81.0275   56.5399   33.5796 c4         1 CLA      0.827000
     13 CGD        78.0149   55.0415   35.5235 c4         1 CLA      0.655300
     14 ND         75.7037   57.7112   38.7197 nm         1 CLA     -0.291600
     15 CED        78.7854   53.0001   36.6284 a3         1 CLA      0.005400
     16 CHA        77.2104   57.0627   36.7990 cs         1 CLA     -0.123800
     17 CHB        80.0657   60.0656   39.2161 aa         1 CLA     -0.291900
     18 CHC        76.5558   60.6689   42.5762 aa         1 CLA     -0.090400
     19 CHD        73.8299   57.4704   40.3054 aa         1 CLA     -0.052000
     20 CMA        81.7500   57.6683   37.8329 a3         1 CLA     -0.230700
     21 CMB        81.2804   62.0261   41.1570 a3         1 CLA     -0.180800
     22 CMC        74.4011   59.9389   44.6351 a3         1 CLA     -0.134000
     23 CMD        72.6925   55.4373   38.1100 a3         1 CLA     -0.141100
     24 C1         82.1598   54.7208   34.6300 a2         1 CLA      0.023000
     25 C1A        78.3536   57.7797   37.0579 ac         1 CLA     -0.015100
     26 C1B        79.3512   60.5652   40.3343 cr         1 CLA      0.054700
     27 C1C        75.5109   59.8319   42.2896 cn         1 CLA     -0.005600
     28 C1D        74.4598   57.1669   39.0566 ap         1 CLA     -0.047300
     29 O1A        80.6888   55.8521   32.6102 o2         1 CLA     -0.610800
     30 O1D        78.8680   54.8061   34.6287 o2         1 CLA     -0.558200
     31 C2         82.9132   54.4905   35.9054 c8         1 CLA     -0.325100
     32 C2A        79.6166   57.8208   36.2644 a1         1 CLA      0.098600
     33 C2B        79.8935   61.4093   41.3309 cb         1 CLA      0.088500
     34 C2C        74.4441   59.4479   43.2322 cb         1 CLA      0.053700
     35 C2D        73.9914   56.2321   38.0493 cb         1 CLA      0.058900
     36 O2A        81.8173   56.1480   34.6365 o1         1 CLA     -0.437200
     37 O2D        77.8119   54.1475   36.5691 o1         1 CLA     -0.357600
     38 C3         84.2811   54.2028   35.9592 c5         1 CLA      0.031200
     39 C3A        80.6000   58.6087   37.1924 a1         1 CLA      0.166800
     40 C3B        78.9444   61.6110   42.3530 cb         1 CLA      0.035000
     41 C3C        73.5776   58.5583   42.5402 cb         1 CLA     -0.089900
     42 C3D        75.0951   56.1515   37.1179 cb         1 CLA     -0.035900
     43 C4         84.8648   52.8018   36.3454 a3         1 CLA     -0.053300
     44 C4A        79.6584   59.1366   38.2211 ac         1 CLA      0.001800
     45 C4B        77.7560   60.8542   41.8576 cn         1 CLA     -0.020900
     46 C4C        74.2688   58.4008   41.2632 cr         1 CLA     -0.044400
     47 C4D        76.0555   57.0396   37.5791 c6         1 CLA     -0.046000
     48 C5         85.2482   55.3780   35.9948 a2         1 CLA     -0.070400
     49 C6         85.4966   56.1463   37.3151 a2         1 CLA      0.043900
     50 C7         86.8192   57.0054   37.2945 a2         1 CLA     -0.150000
     51 C8         88.1044   56.3311   37.9443 a1         1 CLA      0.064200
     52 C9         88.6949   55.1859   37.1286 a3         1 CLA     -0.259300
     53 C10        87.9176   56.0211   39.4653 a2         1 CLA     -0.071900
     54 C11        87.3333   57.1856   40.3137 a2         1 CLA      0.014500
     55 C12        87.4181   56.8105   41.7783 a2         1 CLA     -0.112100
     56 C13        86.7265   57.8668   42.7623 a1         1 CLA      0.089200
     57 C14        87.0599   59.3533   42.5125 a3         1 CLA     -0.239100
     58 C15        87.0287   57.4498   44.2606 a2         1 CLA     -0.102200
     59 C16        86.4389   58.2781   45.3473 a2         1 CLA      0.023900
     60 C17        84.9140   58.2547   45.5011 a2         1 CLA     -0.105700
     61 C18        84.3244   58.7184   46.8778 a1         1 CLA      0.206800
     62 C19        85.0263   59.9829   47.4392 a3         1 CLA     -0.280100
     63 C20        82.8080   58.8103   46.7392 a3         1 CLA     -0.280100
     64 NC         75.3991   59.1495   41.1183 nx         1 CLA     -0.309200
     65 MG         76.8678   59.0929   39.5852 mg         1 CLA      0.895000
     66 HMD3       72.8843   54.4640   37.7646 dc         1 CLA      0.064300
     67 HMD2       72.3127   55.2863   39.1050 dc         1 CLA      0.064300
     68 HMD1       71.9192   55.9874   37.5307 dc         1 CLA      0.064300
     69 HMC3       74.0823   60.8841   44.6011 dc         1 CLA      0.052100
     70 HMC2       73.7433   59.3410   45.3586 dc         1 CLA      0.052100
     71 HMC1       75.4653   59.8906   45.0012 dc         1 CLA      0.052100
     72 HMB3       82.0883   61.3078   41.5434 dc         1 CLA      0.063600
     73 HMB2       81.4576   62.3769   40.1357 dc         1 CLA      0.063600
     74 HMB1       81.2397   63.0340   41.7352 dc         1 CLA      0.063600
     75 HMA3       82.2295   58.1453   38.7252 dc         1 CLA      0.058300
     76 HMA2       81.2698   56.7739   38.2611 dc         1 CLA      0.058300
     77 HMA1       82.4483   57.4485   37.0749 dc         1 CLA      0.058300
     78 HED3       78.4423   52.4580   37.5020 dc         1 CLA      0.079300
     79 HED2       78.7151   52.4142   35.7155 dc         1 CLA      0.079300
     80 HED1       79.7522   53.3746   36.8409 dc         1 CLA      0.079300
     81 HBC3       73.5047   56.1873   43.8929 dc         1 CLA      0.016300
     82 HBC2       71.8063   55.9582   43.9992 dc         1 CLA      0.016300
     83 HBC1       72.7251   55.7249   42.4260 dc         1 CLA      0.016300
     84 HBB2       80.0520   63.0406   45.4131 da         1 CLA      0.183000
     85 HBB1       81.1721   62.0991   44.1213 da         1 CLA      0.183000
     86 HBA2       80.4590   58.6320   32.9000 dc         1 CLA      0.029400
     87 HBA1       81.5012   58.4390   34.3097 dc         1 CLA      0.029400
     88 HAC2       72.1252   58.2976   44.0076 dc         1 CLA      0.029300
     89 HAC1       71.6371   57.8574   42.4017 dc         1 CLA      0.029300
     90 HAA2       78.5000   58.0697   34.3872 dc         1 CLA      0.028700
     91 HAA1       79.4175   59.4981   34.7974 dc         1 CLA      0.028700
     92 H203       82.5560   57.8866   46.2272 dc         1 CLA      0.065600
     93 H202       82.2504   58.6897   47.6560 dc         1 CLA      0.065600
     94 H201       82.5060   59.6592   46.1211 dc         1 CLA      0.065600
     95 H193       85.1707   60.6425   46.5507 dc         1 CLA      0.065600
     96 H192       84.4876   60.4108   48.2655 dc         1 CLA      0.065600
     97 H191       85.9654   59.8185   47.8930 dc         1 CLA      0.065600
     98 H172       84.4110   58.8234   44.6564 dc         1 CLA      0.027600
     99 H171       84.6954   57.1774   45.3696 dc         1 CLA      0.027600
    100 H162       86.9296   57.9811   46.2418 dc         1 CLA      0.002900
    101 H161       86.7565   59.2211   44.9918 dc         1 CLA      0.002900
    102 H152       86.7442   56.4147   44.3920 dc         1 CLA      0.029100
    103 H151       88.1063   57.3348   44.2514 dc         1 CLA      0.029100
    104 H143       88.1083   59.4896   42.7743 dc         1 CLA      0.063600
    105 H142       86.8256   59.7238   41.4916 dc         1 CLA      0.063600
    106 H141       86.3625   59.9818   43.1228 dc         1 CLA      0.063600
    107 H122       86.9808   55.8109   41.8893 dc         1 CLA      0.032500
    108 H121       88.4190   56.6764   42.0895 dc         1 CLA      0.032500
    109 H112       87.9358   58.1125   40.1964 dc         1 CLA      0.006600
    110 H111       86.3324   57.5496   40.1425 dc         1 CLA      0.006600
    111 H102       87.3626   55.1571   39.4916 dc         1 CLA      0.024100
    112 H101       88.9344   55.8013   39.9103 dc         1 CLA      0.024100
    113 HHD        72.8013   57.0550   40.5085 da         1 CLA      0.174300
    114 HHC        76.4459   61.2160   43.5032 da         1 CLA      0.136800
    115 HHB        81.1164   60.3952   39.2908 da         1 CLA      0.138300
    116 HBD        76.9395   56.7161   34.7034 dc         1 CLA      0.107700
    117 HAB        78.1775   62.9549   43.9538 da         1 CLA      0.155200
    118 H93        87.8997   54.4915   37.1656 dc         1 CLA      0.069500
    119 H92        88.8701   55.4269   36.0941 dc         1 CLA      0.069500
    120 H91        89.5553   54.7169   37.5120 dc         1 CLA      0.069500
    121 H8         88.8920   57.0732   37.9936 dc         1 CLA      0.029300
    122 H72        87.0005   57.2596   36.2358 dc         1 CLA      0.044400
    123 H71        86.5796   57.9263   37.8019 dc         1 CLA      0.044400
    124 H62        84.5994   56.7520   37.5643 dc         1 CLA      0.015600
    125 H61        85.5047   55.4649   38.1474 dc         1 CLA      0.015600
    126 H52        86.1992   55.1736   35.4698 dc         1 CLA      0.033200
    127 H51        84.7758   56.1007   35.3185 dc         1 CLA      0.033200
    128 H43        85.4719   52.9859   37.2308 dc         1 CLA      0.037000
    129 H42        84.1196   52.0186   36.6110 dc         1 CLA      0.037000
    130 H41        85.5542   52.4116   35.5865 dc         1 CLA      0.037000
    131 H3A        81.0915   59.5230   36.7121 dc         1 CLA      0.041100
    132 H2A        80.0813   56.8268   36.2667 dc         1 CLA      0.083100
    133 H2         82.4769   54.6647   36.9138 da         1 CLA      0.180900
    134 H18        84.4445   57.9262   47.5049 dc         1 CLA     -0.003900
    135 H13        85.6295   57.6924   42.6123 dc         1 CLA      0.019700
    136 H12        81.3239   54.0040   34.5772 dc         1 CLA      0.120400
    137 H11        82.8182   54.4828   33.7804 dc         1 CLA      0.120400
    138 C1         69.5652   61.7180   49.8484 Z1         2 LUT      0.509236
    139 C2         68.2998   61.6022   50.6471 Z2         2 LUT     -0.434695
    140 C3         67.4174   62.8814   50.8602 Z3         2 LUT      0.437453
    141 O3         67.3035   63.2156   52.2007 S1         2 LUT     -0.547129
    142 C4         67.9833   64.0716   50.1403 Z4         2 LUT     -0.468603
    143 C5         68.4698   63.6921   48.7461 Z5         2 LUT      0.279246
    144 C6         69.3697   62.6997   48.6440 Z6         2 LUT     -0.305473
    145 C7         69.7580   62.2021   47.3033 Z7         2 LUT      0.069402
    146 C8         70.7020   62.7864   46.5229 Z8         2 LUT     -0.191631
    147 C9         71.2436   62.4542   45.1358 Z9         2 LUT      0.196698
    148 C10        72.1859   63.2631   44.6143 Y1         2 LUT     -0.208611
    149 C11        72.8663   63.1358   43.3862 Y2         2 LUT      0.030784
    150 C12        73.9740   63.8284   43.0909 Y3         2 LUT     -0.220316
    151 C13        74.9165   63.6966   41.9594 Y4         2 LUT      0.215937
    152 C14        76.1117   64.3194   42.0307 Y5         2 LUT     -0.185793
    153 C15        77.2306   64.3395   41.1043 Y6         2 LUT     -0.057835
    154 C16        70.1267   60.3606   49.4237 Y7         2 LUT     -0.405615
    155 C17        70.5755   62.2218   50.8904 Y7         2 LUT     -0.405615
    156 C18        67.7736   64.5233   47.6515 Y9         2 LUT     -0.369639
    157 C19        70.5480   61.3051   44.4234 W1         2 LUT     -0.333362
    158 C20        74.3326   62.8550   40.8199 W2         2 LUT     -0.323439
    159 C21        88.5269   65.1079   35.2140 Z1         2 LUT      0.406104
    160 C22        89.0879   64.4536   33.9961 Z2         2 LUT     -0.404965
    161 C23        89.0793   65.1967   32.6073 Z3         2 LUT      0.391255
    162 O23        89.4746   64.1764   31.6708 S1         2 LUT     -0.528210
    163 C24        87.7675   65.7479   32.3259 W6         2 LUT     -0.258361
    164 C25        86.8106   66.0518   33.2828 Z5         2 LUT      0.133546
    165 C26        87.0397   65.5055   34.7457 W8         2 LUT     -0.147008
    166 C27        86.3482   66.3168   35.8195 Z7         2 LUT      0.023843
    167 C28        85.5157   65.7763   36.6970 Z8         2 LUT     -0.216987
    168 C29        84.9383   66.2438   37.9465 Z9         2 LUT      0.206524
    169 C30        83.6980   65.6666   38.1092 Y1         2 LUT     -0.215556
    170 C31        82.8760   65.8731   39.1761 Y2         2 LUT      0.025142
    171 C32        81.6544   65.3460   39.3946 Y3         2 LUT     -0.212209
    172 C33        80.7321   65.6803   40.4749 Y4         2 LUT      0.240937
    173 C34        79.5229   65.0290   40.4480 Y5         2 LUT     -0.218862
    174 C35        78.4646   64.9054   41.4181 Y6         2 LUT     -0.023547
    175 C36        89.5310   66.1428   35.6350 Y7         2 LUT     -0.393485
    176 C37        88.6290   63.9958   36.3111 Y7         2 LUT     -0.393485
    177 C38        85.5092   66.7187   32.8862 Y9         2 LUT     -0.387526
    178 C39        85.5144   67.2942   38.7790 W1         2 LUT     -0.322618
    179 C40        81.0463   66.7098   41.6011 W2         2 LUT     -0.358472
    180 H403       81.2556   67.7321   41.2347 R7         2 LUT      0.097720
    181 H402       80.3439   66.8650   42.4267 R7         2 LUT      0.097720
    182 H401       82.0132   66.5042   42.0463 R7         2 LUT      0.097720
    183 H393       86.4649   67.6779   38.4492 R4         2 LUT      0.082505
    184 H392       84.8168   68.1663   38.8330 R4         2 LUT      0.082505
    185 H391       85.6099   66.9023   39.7962 R4         2 LUT      0.082505
    186 H383       85.1116   67.4305   33.6063 R1         2 LUT      0.104030
    187 H382       85.7366   67.1908   31.9982 R1         2 LUT      0.104030
    188 H381       84.8125   65.8176   32.7095 R1         2 LUT      0.104030
    189 H373       87.9085   63.1725   36.1680 T4         2 LUT      0.089537
    190 H372       89.6149   63.5001   36.3496 T4         2 LUT      0.089537
    191 H371       88.4407   64.4148   37.3228 T4         2 LUT      0.089537
    192 H363       89.0278   66.7652   36.3858 T4         2 LUT      0.089537
    193 H362       90.4578   65.5997   35.9848 T4         2 LUT      0.089537
    194 H361       89.7935   66.8511   34.8150 T4         2 LUT      0.089537
    195 H222       90.2100   64.2502   34.1616 U2         2 LUT      0.127376
    196 H221       88.6284   63.4984   33.7184 U2         2 LUT      0.127376
    197 H203       74.2223   61.7211   40.8533 R7         2 LUT      0.087068
    198 H202       73.4528   63.2215   40.3469 R7         2 LUT      0.087068
    199 H201       75.0261   63.0114   40.0377 R7         2 LUT      0.087068
    200 H193       71.3414   60.6308   43.9994 R4         2 LUT      0.089716
    201 H192       70.0588   60.6193   45.1119 R4         2 LUT      0.089716
    202 H191       69.9141   61.6186   43.5936 R4         2 LUT      0.089716
    203 H183       66.7344   64.6742   47.9316 R1         2 LUT      0.094572
    204 H182       68.3179   65.4352   47.4279 R1         2 LUT      0.094572
    205 H181       67.8076   63.8665   46.7945 R1         2 LUT      0.094572
    206 H173       71.4617   62.7050   50.4130 T4         2 LUT      0.093752
    207 H172       70.1930   62.9983   51.5395 T4         2 LUT      0.093752
    208 H171       70.9185   61.5033   51.5821 T4         2 LUT      0.093752
    209 H163       70.9316   60.5303   48.6491 T4         2 LUT      0.093752
    210 H162       70.2394   59.6653   50.2370 T4         2 LUT      0.093752
    211 H161       69.3956   59.7713   48.8421 T4         2 LUT      0.093752
    212 HO3        66.5935   62.8167   52.6860 Q1         2 LUT      0.300121
    213 H8         71.1980   63.7068   46.9505 U7         2 LUT      0.080784
    214 H7         69.3708   61.3006   46.8550 U6         2 LUT      0.042190
    215 H42        67.3566   64.9483   50.1578 U5         2 LUT      0.145166
    216 H41        68.8620   64.4205   50.7713 U5         2 LUT      0.145166
    217 H35        78.5843   65.3633   42.4113 T3         2 LUT      0.077919
    218 H34        79.2950   64.4000   39.5845 T2         2 LUT      0.073626
    219 H32        81.2355   64.6914   38.6295 T1         2 LUT      0.092510
    220 H31        83.1620   66.6252   39.8967 U9         2 LUT      0.070048
    221 H30        83.4065   65.0156   37.2929 U8         2 LUT      0.085442
    222 H3         66.3625   62.8812   50.4394 U3         2 LUT     -0.031596
    223 H28        85.2609   64.7375   36.4856 U7         2 LUT      0.084728
    224 H27        86.6596   67.3628   35.9386 U6         2 LUT      0.087291
    225 H26        86.3797   64.5913   34.6682 Q6         2 LUT      0.075325
    226 H24        87.6969   66.2869   31.3559 Q5         2 LUT      0.094482
    227 H23        89.8578   66.0118   32.6053 U3         2 LUT     -0.024869
    228 H22        67.6292   60.9293   50.0827 U2         2 LUT      0.127376
    229 H21        68.5630   61.1913   51.6662 U2         2 LUT      0.127376
    230 H15        77.1584   63.8508   40.0703 T3         2 LUT      0.093200
    231 H14        76.1359   64.9926   42.8733 T2         2 LUT      0.068865
    232 H12        74.2639   64.5398   43.8771 T1         2 LUT      0.095507
    233 H11        72.5924   62.2804   42.8719 U9         2 LUT      0.068930
    234 H10        72.6394   64.0081   45.2980 U8         2 LUT      0.083911
    235 H1         89.7766   64.5851   30.8926 Q1         2 LUT      0.297311
@<TRIPOS>BOND
    1     6     1 1
    2     7     2 1
    3     8     3 1
    4     9     4 1
    5    11     4 1
    6    12     6 1
    7    13     9 1
    8    16     9 1
    9    25     5 1
   10    25    16 1
   11    26    10 1
   12    26    17 1
   13    27    18 1
   14    28    14 1
   15    28    19 1
   16    29    12 1
   17    30    13 1
   18    31    24 1
   19    32     1 1
   20    32    25 1
   21    33    21 1
   22    33    26 1
   23    34    22 1
   24    34    27 1
   25    35    23 1
   26    35    28 1
   27    36    12 1
   28    36    24 1
   29    37    13 1
   30    37    15 1
   31    38    31 1
   32    39    20 1
   33    39    32 1
   34    40     2 1
   35    40    33 1
   36    41     3 1
   37    41    34 1
   38    42     4 1
   39    42    35 1
   40    43    38 1
   41    44     5 1
   42    44    17 1
   43    44    39 1
   44    45    10 1
   45    45    18 1
   46    45    40 1
   47    46    19 1
   48    46    41 1
   49    47    14 1
   50    47    16 1
   51    47    42 1
   52    48    38 1
   53    49    48 1
   54    50    49 1
   55    51    50 1
   56    52    51 1
   57    53    51 1
   58    54    53 1
   59    55    54 1
   60    56    55 1
   61    57    56 1
   62    58    56 1
   63    59    58 1
   64    60    59 1
   65    61    60 1
   66    62    61 1
   67    63    61 1
   68    64    27 1
   69    64    46 1
   70    65     5 1
   71    65    10 1
   72    65    64 1
   73    65    14 1
   74    66    23 1
   75    67    23 1
   76    68    23 1
   77    69    22 1
   78    70    22 1
   79    71    22 1
   80    72    21 1
   81    73    21 1
   82    74    21 1
   83    75    20 1
   84    76    20 1
   85    77    20 1
   86    78    15 1
   87    79    15 1
   88    80    15 1
   89    81     8 1
   90    82     8 1
   91    83     8 1
   92    84     7 1
   93    85     7 1
   94    86     6 1
   95    87     6 1
   96    88     3 1
   97    89     3 1
   98    90     1 1
   99    91     1 1
  100    92    63 1
  101    93    63 1
  102    94    63 1
  103    95    62 1
  104    96    62 1
  105    97    62 1
  106    98    60 1
  107    99    60 1
  108   100    59 1
  109   101    59 1
  110   102    58 1
  111   103    58 1
  112   104    57 1
  113   105    57 1
  114   106    57 1
  115   107    55 1
  116   108    55 1
  117   109    54 1
  118   110    54 1
  119   111    53 1
  120   112    53 1
  121   113    19 1
  122   114    18 1
  123   115    17 1
  124   116     9 1
  125   117     2 1
  126   118    52 1
  127   119    52 1
  128   120    52 1
  129   121    51 1
  130   122    50 1
  131   123    50 1
  132   124    49 1
  133   125    49 1
  134   126    48 1
  135   127    48 1
  136   128    43 1
  137   129    43 1
  138   130    43 1
  139   131    39 1
  140   132    32 1
  141   133    31 1
  142   134    61 1
  143   135    56 1
  144   136    24 1
  145   137    24 1
  146   139   138 1
  147   140   139 1
  148   141   140 1
  149   142   140 1
  150   143   142 1
  151   144   138 1
  152   144   143 1
  153   145   144 1
  154   146   145 1
  155   147   146 1
  156   148   147 1
  157   149   148 1
  158   150   149 1
  159   151   150 1
  160   152   151 1
  161   153   152 1
  162   154   138 1
  163   155   138 1
  164   156   143 1
  165   157   147 1
  166   158   151 1
  167   160   159 1
  168   161   160 1
  169   162   161 1
  170   163   161 1
  171   164   163 1
  172   165   159 1
  173   165   164 1
  174   166   165 1
  175   167   166 1
  176   168   167 1
  177   169   168 1
  178   170   169 1
  179   171   170 1
  180   172   171 1
  181   173   172 1
  182   174   153 1
  183   174   173 1
  184   175   159 1
  185   176   159 1
  186   177   164 1
  187   178   168 1
  188   179   172 1
  189   180   179 1
  190   181   179 1
  191   182   179 1
  192   183   178 1
  193   184   178 1
  194   185   178 1
  195   186   177 1
  196   187   177 1
  197   188   177 1
  198   189   176 1
  199   190   176 1
  200   191   176 1
  201   192   175 1
  202   193   175 1
  203   194   175 1
  204   195   160 1
  205   196   160 1
  206   197   158 1
  207   198   158 1
  208   199   158 1
  209   200   157 1
  210   201   157 1
  211   202   157 1
  212   203   156 1
  213   204   156 1
  214   205   156 1
  215   206   155 1
  216   207   155 1
  217   208   155 1
  218   209   154 1
  219   210   154 1
  220   211   154 1
  221   212   141 1
  222   213   146 1
  223   214   145 1
  224   215   142 1
  225   216   142 1
  226   217   174 1
  227   218   173 1
  228   219   171 1
  229   220   170 1
  230   221   169 1
  231   222   140 1
  232   223   167 1
  233   224   166 1
  234   225   165 1
  235   226   163 1
  236   227   161 1
  237   228   139 1
  238   229   139 1
  239   230   153 1
  240   231   152 1
  241   232   150 1
  242   233   149 1
  243   234   148 1
  244   235   162 1
  245   65    153 1
  246   65    174 1
@<TRIPOS>SUBSTRUCTURE
      1 CLA               1 ****               0 ****  **** 
      2 LUT             138 ****               0 ****  **** 
