@<TRIPOS>MOLECULE
Cpptraj generated mol2 file.
  235   246     2     0     0
SMALL
USER_CHARGES


@<TRIPOS>ATOM
      1 CAA        79.8250   58.3093   34.7755 a2         1 CLA     -0.055900
      2 CAB        80.0876   62.4162   43.5952 c8         1 CLA     -0.148500
      3 CAC        72.8374   58.6446   43.0729 a2         1 CLA     -0.012600
      4 CAD        75.6477   55.7565   36.0355 ck         1 CLA      0.398800
      5 NA         78.7650   58.7391   38.0810 ns         1 CLA     -0.225500
      6 CBA        80.9940   58.0359   33.7722 a2         1 CLA     -0.135000
      7 CBB        81.3066   62.6966   44.1268 c0         1 CLA     -0.395200
      8 CBC        73.1582   57.0877   43.3954 a3         1 CLA     -0.037700
      9 CBD        77.0792   56.3206   35.6613 a1         1 CLA     -0.053900
     10 NB         78.7094   60.4918   40.5907 nm         1 CLA     -0.295700
     11 OBD        74.9893   54.9018   35.3773 o2         1 CLA     -0.494600
     12 CGA        81.3878   56.6306   33.3308 c4         1 CLA      0.827000
     13 CGD        78.0275   55.1313   35.4392 c4         1 CLA      0.655300
     14 ND         76.0378   58.0418   38.7340 nm         1 CLA     -0.291600
     15 CED        78.9696   53.1190   36.3864 a3         1 CLA      0.005400
     16 CHA        77.4503   57.2456   36.7747 cs         1 CLA     -0.123800
     17 CHB        80.6451   60.0709   39.0743 aa         1 CLA     -0.291900
     18 CHC        77.4092   60.8703   42.7099 aa         1 CLA     -0.090400
     19 CHD        74.0872   58.1070   40.2609 aa         1 CLA     -0.052000
     20 CMA        82.1616   57.6681   37.7505 a3         1 CLA     -0.230700
     21 CMB        82.1732   61.9633   41.0134 a3         1 CLA     -0.180800
     22 CMC        75.0868   60.3633   44.7657 a3         1 CLA     -0.134000
     23 CMD        72.9478   55.8932   38.2609 a3         1 CLA     -0.141100
     24 C1         82.5460   54.7420   34.2993 a2         1 CLA      0.023000
     25 C1A        78.6557   57.9253   37.0084 ac         1 CLA     -0.015100
     26 C1B        80.0339   60.6957   40.2125 cr         1 CLA      0.054700
     27 C1C        76.1812   60.1955   42.4090 cn         1 CLA     -0.005600
     28 C1D        74.7450   57.6360   39.1056 ap         1 CLA     -0.047300
     29 O1A        81.0882   56.0926   32.2888 o2         1 CLA     -0.610800
     30 O1D        78.7815   55.0682   34.4891 o2         1 CLA     -0.558200
     31 C2         83.3639   54.4830   35.5507 c8         1 CLA     -0.325100
     32 C2A        80.0052   57.7075   36.2497 a1         1 CLA      0.098600
     33 C2B        80.7269   61.4580   41.2529 cb         1 CLA      0.088500
     34 C2C        75.0388   59.9232   43.2983 cb         1 CLA      0.053700
     35 C2D        74.2677   56.6305   38.1558 cb         1 CLA      0.058900
     36 O2A        82.0777   56.1181   34.4280 o1         1 CLA     -0.437200
     37 O2D        77.9100   54.1792   36.4088 o1         1 CLA     -0.357600
     38 C3         84.6219   53.9751   35.4228 c5         1 CLA      0.031200
     39 C3A        81.0378   58.5243   37.0733 a1         1 CLA      0.166800
     40 C3B        79.8443   61.6537   42.3552 cb         1 CLA      0.035000
     41 C3C        74.1093   59.2450   42.5637 cb         1 CLA     -0.089900
     42 C3D        75.2846   56.4853   37.2551 cb         1 CLA     -0.035900
     43 C4         84.8625   52.4943   35.4154 a3         1 CLA     -0.053300
     44 C4A        80.0793   59.1636   38.1907 ac         1 CLA      0.001800
     45 C4B        78.5609   60.9800   41.9066 cn         1 CLA     -0.020900
     46 C4C        74.6599   58.9032   41.2620 cr         1 CLA     -0.044400
     47 C4D        76.3252   57.3935   37.5828 c6         1 CLA     -0.046000
     48 C5         85.8008   54.9258   35.4629 a2         1 CLA     -0.070400
     49 C6         86.2817   55.4582   36.8293 a2         1 CLA      0.043900
     50 C7         87.4124   56.5647   36.6714 a2         1 CLA     -0.150000
     51 C8         88.3583   56.7790   37.8861 a1         1 CLA      0.064200
     52 C9         89.3404   55.5695   38.1514 a3         1 CLA     -0.259300
     53 C10        87.6274   57.1765   39.2406 a2         1 CLA     -0.071900
     54 C11        88.6630   57.9981   40.0438 a2         1 CLA      0.014500
     55 C12        88.1151   58.3751   41.4164 a2         1 CLA     -0.112100
     56 C13        89.0538   59.3031   42.2882 a1         1 CLA      0.089200
     57 C14        90.2453   58.5963   42.8890 a3         1 CLA     -0.239100
     58 C15        88.1491   59.8341   43.4186 a2         1 CLA     -0.102200
     59 C16        88.6315   60.8331   44.4763 a2         1 CLA      0.023900
     60 C17        87.4974   61.2377   45.5052 a2         1 CLA     -0.105700
     61 C18        86.8375   60.1384   46.3392 a1         1 CLA      0.206800
     62 C19        87.8465   59.3804   47.2471 a3         1 CLA     -0.280100
     63 C20        85.6507   60.6567   47.2380 a3         1 CLA     -0.280100
     64 NC         75.9558   59.4877   41.2115 nx         1 CLA     -0.309200
     65 MG         77.3360   59.2680   39.6379 mg         1 CLA      0.895000
     66 HMD3       72.1022   56.4941   38.5106 dc         1 CLA      0.064300
     67 HMD2       72.7898   55.4667   37.2582 dc         1 CLA      0.064300
     68 HMD1       73.1995   55.0370   38.9463 dc         1 CLA      0.064300
     69 HMC3       74.1928   59.8881   45.2721 dc         1 CLA      0.052100
     70 HMC2       75.9464   60.1188   45.4176 dc         1 CLA      0.052100
     71 HMC1       75.0881   61.4753   44.8063 dc         1 CLA      0.052100
     72 HMB3       82.5643   61.9524   39.9017 dc         1 CLA      0.063600
     73 HMB2       82.3911   62.9718   41.3369 dc         1 CLA      0.063600
     74 HMB1       82.9840   61.4316   41.4164 dc         1 CLA      0.063600
     75 HMA3       81.8090   57.0101   38.5478 dc         1 CLA      0.058300
     76 HMA2       82.6613   57.0513   37.0496 dc         1 CLA      0.058300
     77 HMA1       82.8749   58.4056   38.1985 dc         1 CLA      0.058300
     78 HED3       79.9593   53.5592   36.5259 dc         1 CLA      0.079300
     79 HED2       78.7331   52.5396   37.2749 dc         1 CLA      0.079300
     80 HED1       78.8671   52.5715   35.5087 dc         1 CLA      0.079300
     81 HBC3       72.8069   56.3933   42.6837 dc         1 CLA      0.016300
     82 HBC2       74.2496   56.9528   43.5432 dc         1 CLA      0.016300
     83 HBC1       72.7014   56.8958   44.4063 dc         1 CLA      0.016300
     84 HBB2       81.3886   63.2977   45.0824 da         1 CLA      0.183000
     85 HBB1       82.3042   62.4331   43.5795 da         1 CLA      0.183000
     86 HBA2       80.7856   58.7139   32.8786 dc         1 CLA      0.029400
     87 HBA1       81.8603   58.5282   34.2341 dc         1 CLA      0.029400
     88 HAC2       72.5344   59.1394   43.9753 dc         1 CLA      0.029300
     89 HAC1       72.0473   58.8014   42.3548 dc         1 CLA      0.029300
     90 HAA2       78.9221   57.9844   34.3160 dc         1 CLA      0.028700
     91 HAA1       79.8241   59.3731   34.9209 dc         1 CLA      0.028700
     92 H203       86.0414   61.1733   48.0935 dc         1 CLA      0.065600
     93 H202       84.9783   61.2071   46.6582 dc         1 CLA      0.065600
     94 H201       85.1876   59.7699   47.7045 dc         1 CLA      0.065600
     95 H193       88.4735   58.7651   46.6295 dc         1 CLA      0.065600
     96 H192       88.3180   60.1133   47.8819 dc         1 CLA      0.065600
     97 H191       87.1621   58.7505   47.8657 dc         1 CLA      0.065600
     98 H172       87.9288   61.9477   46.1454 dc         1 CLA      0.027600
     99 H171       86.7519   61.7113   44.8400 dc         1 CLA      0.027600
    100 H162       89.5733   60.6210   44.9635 dc         1 CLA      0.002900
    101 H161       88.8201   61.8403   44.0442 dc         1 CLA      0.002900
    102 H152       87.2266   60.3756   43.0000 dc         1 CLA      0.029100
    103 H151       87.8373   58.8396   43.9386 dc         1 CLA      0.029100
    104 H143       90.6605   59.2326   43.7532 dc         1 CLA      0.063600
    105 H142       89.7741   57.6775   43.3046 dc         1 CLA      0.063600
    106 H141       90.9604   58.3705   42.0954 dc         1 CLA      0.063600
    107 H122       87.1444   58.8736   41.2829 dc         1 CLA      0.032500
    108 H121       87.9700   57.4621   41.9811 dc         1 CLA      0.032500
    109 H112       89.7037   57.5492   40.0993 dc         1 CLA      0.006600
    110 H111       88.7972   58.9677   39.4533 dc         1 CLA      0.006600
    111 H102       86.7605   57.9129   39.1543 dc         1 CLA      0.024100
    112 H101       87.4628   56.2731   39.8506 dc         1 CLA      0.024100
    113 HHD        73.0196   57.8852   40.3675 da         1 CLA      0.174300
    114 HHC        77.4340   61.2953   43.6493 da         1 CLA      0.136800
    115 HHB        81.7056   60.2542   39.0610 da         1 CLA      0.138300
    116 HBD        77.2761   56.8924   34.6857 dc         1 CLA      0.107700
    117 HAB        79.1842   62.4621   44.2608 da         1 CLA      0.155200
    118 H93        90.1550   55.7990   38.8349 dc         1 CLA      0.069500
    119 H92        88.8558   54.6053   38.4316 dc         1 CLA      0.069500
    120 H91        89.7635   55.5566   37.1197 dc         1 CLA      0.069500
    121 H8         88.9634   57.6240   37.6032 dc         1 CLA      0.029300
    122 H72        88.0247   56.3176   35.8185 dc         1 CLA      0.044400
    123 H71        87.0416   57.5591   36.5610 dc         1 CLA      0.044400
    124 H62        85.4600   55.8955   37.4311 dc         1 CLA      0.015600
    125 H61        86.8187   54.6536   37.3652 dc         1 CLA      0.015600
    126 H52        86.6924   54.4517   35.0045 dc         1 CLA      0.033200
    127 H51        85.4867   55.7671   34.8426 dc         1 CLA      0.033200
    128 H43        85.4550   52.1931   34.4770 dc         1 CLA      0.037000
    129 H42        85.5809   52.3339   36.2146 dc         1 CLA      0.037000
    130 H41        83.9648   51.9135   35.6003 dc         1 CLA      0.037000
    131 H3A        81.4832   59.2809   36.4426 dc         1 CLA      0.041100
    132 H2A        80.4780   56.7651   36.2874 dc         1 CLA      0.083100
    133 H2         82.9747   54.7524   36.4813 da         1 CLA      0.180900
    134 H18        86.3877   59.4362   45.6179 dc         1 CLA     -0.003900
    135 H13        89.4944   60.2200   41.8927 dc         1 CLA      0.019700
    136 H12        81.7197   54.0607   34.3461 dc         1 CLA      0.120400
    137 H11        83.1804   54.6973   33.4251 dc         1 CLA      0.120400
    138 C1         69.5809   62.4900   49.3808 Z1         2 LUT      0.509236
    139 C2         68.2362   62.1693   50.0848 Z2         2 LUT     -0.434695
    140 C3         67.4475   63.4343   50.5676 Z3         2 LUT      0.437453
    141 O3         67.6878   63.8355   51.8894 S1         2 LUT     -0.547129
    142 C4         67.5193   64.5892   49.5557 Z4         2 LUT     -0.468603
    143 C5         68.2327   64.2999   48.2510 Z5         2 LUT      0.279246
    144 C6         69.2330   63.3588   48.1469 Z6         2 LUT     -0.305473
    145 C7         69.8755   63.0394   46.8942 Z7         2 LUT      0.069402
    146 C8         71.0669   63.4082   46.3240 Z8         2 LUT     -0.191631
    147 C9         71.6394   63.1814   44.9885 Z9         2 LUT      0.196698
    148 C10        72.6572   64.0498   44.7333 Y1         2 LUT     -0.208611
    149 C11        73.6390   63.8227   43.7001 Y2         2 LUT      0.030784
    150 C12        74.8118   64.4866   43.4710 Y3         2 LUT     -0.220316
    151 C13        75.8395   64.2624   42.4706 Y4         2 LUT      0.215937
    152 C14        77.0167   64.9605   42.5010 Y5         2 LUT     -0.185793
    153 C15        78.1490   64.8745   41.6927 Y6         2 LUT     -0.057835
    154 C16        70.3397   61.1424   49.2673 Y7         2 LUT     -0.405615
    155 C17        70.4071   63.3971   50.3629 Y7         2 LUT     -0.405615
    156 C18        67.8694   65.3991   47.2757 Y9         2 LUT     -0.369639
    157 C19        71.1977   61.9879   44.2398 W1         2 LUT     -0.333362
    158 C20        75.6857   63.2711   41.3125 W2         2 LUT     -0.323439
    159 C21        89.0011   65.7808   34.8515 Z1         2 LUT      0.406104
    160 C22        89.7853   65.2640   33.6257 Z2         2 LUT     -0.404965
    161 C23        89.8831   66.2569   32.5375 Z3         2 LUT      0.391255
    162 O23        90.6523   65.6679   31.4831 S1         2 LUT     -0.528210
    163 C24        88.4507   66.8053   32.1540 W6         2 LUT     -0.258361
    164 C25        87.4439   66.8261   33.0771 Z5         2 LUT      0.133546
    165 C26        87.5130   66.0791   34.4093 W8         2 LUT     -0.147008
    166 C27        86.8035   66.7924   35.4710 Z7         2 LUT      0.023843
    167 C28        85.8256   66.2988   36.2636 Z8         2 LUT     -0.216987
    168 C29        85.3506   66.9453   37.5286 Z9         2 LUT      0.206524
    169 C30        84.2342   66.3797   38.1044 Y1         2 LUT     -0.215556
    170 C31        83.5243   66.6918   39.2265 Y2         2 LUT      0.025142
    171 C32        82.3368   66.0912   39.6139 Y3         2 LUT     -0.212209
    172 C33        81.5170   66.3489   40.7510 Y4         2 LUT      0.240937
    173 C34        80.4380   65.4729   40.9651 Y5         2 LUT     -0.218862
    174 C35        79.3165   65.5304   41.8962 Y6         2 LUT     -0.023547
    175 C36        89.7808   66.9318   35.5086 Y7         2 LUT     -0.393485
    176 C37        89.0418   64.6312   35.9723 Y7         2 LUT     -0.393485
    177 C38        86.0662   67.3176   32.7028 Y9         2 LUT     -0.387526
    178 C39        85.8474   68.2434   38.1484 W1         2 LUT     -0.322618
    179 C40        81.7990   67.6610   41.4992 W2         2 LUT     -0.358472
    180 H403       82.8168   67.7610   41.9753 R7         2 LUT      0.097720
    181 H402       81.7633   68.5420   40.8900 R7         2 LUT      0.097720
    182 H401       81.1492   67.7648   42.3549 R7         2 LUT      0.097720
    183 H393       86.5364   68.1416   38.9035 R4         2 LUT      0.082505
    184 H392       86.3993   68.7607   37.4348 R4         2 LUT      0.082505
    185 H391       85.0856   68.9672   38.3776 R4         2 LUT      0.082505
    186 H383       85.7104   68.1121   33.4061 R1         2 LUT      0.104030
    187 H382       86.0220   67.8783   31.7684 R1         2 LUT      0.104030
    188 H381       85.3920   66.4570   32.6701 R1         2 LUT      0.104030
    189 H373       88.6636   64.9429   36.9264 T4         2 LUT      0.089537
    190 H372       88.3121   63.8605   35.5848 T4         2 LUT      0.089537
    191 H371       90.1024   64.2905   36.0874 T4         2 LUT      0.089537
    192 H363       89.2936   67.1890   36.4371 T4         2 LUT      0.089537
    193 H362       90.8021   66.7298   35.8464 T4         2 LUT      0.089537
    194 H361       89.6466   67.8924   34.9880 T4         2 LUT      0.089537
    195 H222       90.7966   64.9741   33.8351 U2         2 LUT      0.127376
    196 H221       89.2694   64.4048   33.2533 U2         2 LUT      0.127376
    197 H203       75.1255   63.6004   40.4094 R7         2 LUT      0.087068
    198 H202       76.5613   62.6253   41.1008 R7         2 LUT      0.087068
    199 H201       74.9031   62.5109   41.6746 R7         2 LUT      0.087068
    200 H193       70.0969   61.8501   44.2303 R4         2 LUT      0.089716
    201 H192       71.4539   61.9584   43.2042 R4         2 LUT      0.089716
    202 H191       71.6275   61.0679   44.6192 R4         2 LUT      0.089716
    203 H183       68.2593   66.3545   47.5809 R1         2 LUT      0.094572
    204 H182       68.2537   65.1791   46.2774 R1         2 LUT      0.094572
    205 H181       66.7038   65.5444   47.1566 R1         2 LUT      0.094572
    206 H173       70.0349   64.3822   50.5235 T4         2 LUT      0.093752
    207 H172       70.4786   63.0192   51.3294 T4         2 LUT      0.093752
    208 H171       71.5079   63.4584   50.0313 T4         2 LUT      0.093752
    209 H163       71.2940   61.2907   48.8978 T4         2 LUT      0.093752
    210 H162       70.4059   60.5991   50.2195 T4         2 LUT      0.093752
    211 H161       69.9119   60.4624   48.5295 T4         2 LUT      0.093752
    212 HO3        67.1944   63.3545   52.5316 Q1         2 LUT      0.300121
    213 H8         71.5958   64.0787   46.9469 U7         2 LUT      0.080784
    214 H7         69.3338   62.4018   46.1839 U6         2 LUT      0.042190
    215 H42        66.4892   64.8106   49.3480 U5         2 LUT      0.145166
    216 H41        67.9148   65.4963   50.0315 U5         2 LUT      0.145166
    217 H35        79.3676   66.2204   42.7761 T3         2 LUT      0.077919
    218 H34        80.2480   64.7528   40.1685 T2         2 LUT      0.073626
    219 H32        82.0580   65.2230   38.9648 T1         2 LUT      0.092510
    220 H31        83.9929   67.4553   39.8140 U9         2 LUT      0.070048
    221 H30        83.8133   65.5773   37.5734 U8         2 LUT      0.085442
    222 H3         66.3570   63.1088   50.4110 U3         2 LUT     -0.031596
    223 H28        85.3860   65.3455   35.9001 U7         2 LUT      0.084728
    224 H27        87.3074   67.7501   35.8196 U6         2 LUT      0.087291
    225 H26        86.9452   65.1830   34.2002 Q6         2 LUT      0.075325
    226 H24        88.2476   67.1326   31.0979 Q5         2 LUT      0.094482
    227 H23        90.4229   67.1961   32.8260 U3         2 LUT     -0.024869
    228 H22        67.6534   61.3962   49.5972 U2         2 LUT      0.127376
    229 H21        68.5036   61.5529   50.9654 U2         2 LUT      0.127376
    230 H15        78.1520   64.2250   40.7985 T3         2 LUT      0.093200
    231 H14        77.2627   65.6961   43.2803 T2         2 LUT      0.068865
    232 H12        75.0230   65.3107   44.1439 T1         2 LUT      0.095507
    233 H11        73.4565   63.0274   42.9526 U9         2 LUT      0.068930
    234 H10        72.9460   64.9714   45.2855 U8         2 LUT      0.083911
    235 H1         90.0456   65.2115   30.8378 Q1         2 LUT      0.297311
@<TRIPOS>BOND
    1     6     1 1
    2     7     2 1
    3     8     3 1
    4     9     4 1
    5    11     4 1
    6    12     6 1
    7    13     9 1
    8    16     9 1
    9    25     5 1
   10    25    16 1
   11    26    10 1
   12    26    17 1
   13    27    18 1
   14    28    14 1
   15    28    19 1
   16    29    12 1
   17    30    13 1
   18    31    24 1
   19    32     1 1
   20    32    25 1
   21    33    21 1
   22    33    26 1
   23    34    22 1
   24    34    27 1
   25    35    23 1
   26    35    28 1
   27    36    12 1
   28    36    24 1
   29    37    13 1
   30    37    15 1
   31    38    31 1
   32    39    20 1
   33    39    32 1
   34    40     2 1
   35    40    33 1
   36    41     3 1
   37    41    34 1
   38    42     4 1
   39    42    35 1
   40    43    38 1
   41    44     5 1
   42    44    17 1
   43    44    39 1
   44    45    10 1
   45    45    18 1
   46    45    40 1
   47    46    19 1
   48    46    41 1
   49    47    14 1
   50    47    16 1
   51    47    42 1
   52    48    38 1
   53    49    48 1
   54    50    49 1
   55    51    50 1
   56    52    51 1
   57    53    51 1
   58    54    53 1
   59    55    54 1
   60    56    55 1
   61    57    56 1
   62    58    56 1
   63    59    58 1
   64    60    59 1
   65    61    60 1
   66    62    61 1
   67    63    61 1
   68    64    27 1
   69    64    46 1
   70    65     5 1
   71    65    10 1
   72    65    64 1
   73    65    14 1
   74    66    23 1
   75    67    23 1
   76    68    23 1
   77    69    22 1
   78    70    22 1
   79    71    22 1
   80    72    21 1
   81    73    21 1
   82    74    21 1
   83    75    20 1
   84    76    20 1
   85    77    20 1
   86    78    15 1
   87    79    15 1
   88    80    15 1
   89    81     8 1
   90    82     8 1
   91    83     8 1
   92    84     7 1
   93    85     7 1
   94    86     6 1
   95    87     6 1
   96    88     3 1
   97    89     3 1
   98    90     1 1
   99    91     1 1
  100    92    63 1
  101    93    63 1
  102    94    63 1
  103    95    62 1
  104    96    62 1
  105    97    62 1
  106    98    60 1
  107    99    60 1
  108   100    59 1
  109   101    59 1
  110   102    58 1
  111   103    58 1
  112   104    57 1
  113   105    57 1
  114   106    57 1
  115   107    55 1
  116   108    55 1
  117   109    54 1
  118   110    54 1
  119   111    53 1
  120   112    53 1
  121   113    19 1
  122   114    18 1
  123   115    17 1
  124   116     9 1
  125   117     2 1
  126   118    52 1
  127   119    52 1
  128   120    52 1
  129   121    51 1
  130   122    50 1
  131   123    50 1
  132   124    49 1
  133   125    49 1
  134   126    48 1
  135   127    48 1
  136   128    43 1
  137   129    43 1
  138   130    43 1
  139   131    39 1
  140   132    32 1
  141   133    31 1
  142   134    61 1
  143   135    56 1
  144   136    24 1
  145   137    24 1
  146   139   138 1
  147   140   139 1
  148   141   140 1
  149   142   140 1
  150   143   142 1
  151   144   138 1
  152   144   143 1
  153   145   144 1
  154   146   145 1
  155   147   146 1
  156   148   147 1
  157   149   148 1
  158   150   149 1
  159   151   150 1
  160   152   151 1
  161   153   152 1
  162   154   138 1
  163   155   138 1
  164   156   143 1
  165   157   147 1
  166   158   151 1
  167   160   159 1
  168   161   160 1
  169   162   161 1
  170   163   161 1
  171   164   163 1
  172   165   159 1
  173   165   164 1
  174   166   165 1
  175   167   166 1
  176   168   167 1
  177   169   168 1
  178   170   169 1
  179   171   170 1
  180   172   171 1
  181   173   172 1
  182   174   153 1
  183   174   173 1
  184   175   159 1
  185   176   159 1
  186   177   164 1
  187   178   168 1
  188   179   172 1
  189   180   179 1
  190   181   179 1
  191   182   179 1
  192   183   178 1
  193   184   178 1
  194   185   178 1
  195   186   177 1
  196   187   177 1
  197   188   177 1
  198   189   176 1
  199   190   176 1
  200   191   176 1
  201   192   175 1
  202   193   175 1
  203   194   175 1
  204   195   160 1
  205   196   160 1
  206   197   158 1
  207   198   158 1
  208   199   158 1
  209   200   157 1
  210   201   157 1
  211   202   157 1
  212   203   156 1
  213   204   156 1
  214   205   156 1
  215   206   155 1
  216   207   155 1
  217   208   155 1
  218   209   154 1
  219   210   154 1
  220   211   154 1
  221   212   141 1
  222   213   146 1
  223   214   145 1
  224   215   142 1
  225   216   142 1
  226   217   174 1
  227   218   173 1
  228   219   171 1
  229   220   170 1
  230   221   169 1
  231   222   140 1
  232   223   167 1
  233   224   166 1
  234   225   165 1
  235   226   163 1
  236   227   161 1
  237   228   139 1
  238   229   139 1
  239   230   153 1
  240   231   152 1
  241   232   150 1
  242   233   149 1
  243   234   148 1
  244   235   162 1
  245   65    153 1
  246   65    174 1
@<TRIPOS>SUBSTRUCTURE
      1 CLA               1 ****               0 ****  **** 
      2 LUT             138 ****               0 ****  **** 
