@<TRIPOS>MOLECULE
Cpptraj generated mol2 file.
  235   246     2     0     0
SMALL
USER_CHARGES


@<TRIPOS>ATOM
      1 CAA        79.5060   58.9657   33.5100 a2         1 CLA     -0.055900
      2 CAB        78.6631   61.4410   42.9070 c8         1 CLA     -0.148500
      3 CAC        71.7913   57.6469   41.2184 a2         1 CLA     -0.012600
      4 CAD        74.8913   56.8834   33.7596 ck         1 CLA      0.398800
      5 NA         78.2049   58.8413   36.8205 ns         1 CLA     -0.225500
      6 CBA        80.6548   58.9325   32.5112 a2         1 CLA     -0.135000
      7 CBB        79.3843   62.4988   43.2425 c0         1 CLA     -0.395200
      8 CBC        71.8846   56.0678   40.9651 a3         1 CLA     -0.037700
      9 CBD        76.4390   57.2787   33.7209 a1         1 CLA     -0.053900
     10 NB         77.9278   59.8936   39.6433 nm         1 CLA     -0.295700
     11 OBD        74.2892   56.2409   32.9218 o2         1 CLA     -0.494600
     12 CGA        81.1571   57.5768   31.9340 c4         1 CLA      0.827000
     13 CGD        77.3354   56.1781   33.2188 c4         1 CLA      0.655300
     14 ND         75.2424   58.2214   36.9830 nm         1 CLA     -0.291600
     15 CED        78.1605   53.9344   33.4513 a3         1 CLA      0.005400
     16 CHA        76.8285   57.8859   35.0591 cs         1 CLA     -0.123800
     17 CHB        79.9640   59.8836   38.1984 aa         1 CLA     -0.291900
     18 CHC        76.3927   59.8116   41.5734 aa         1 CLA     -0.090400
     19 CHD        73.2590   57.9104   38.4203 aa         1 CLA     -0.052000
     20 CMA        81.6158   58.0290   36.2947 a3         1 CLA     -0.230700
     21 CMB        81.2721   60.7198   40.9168 a3         1 CLA     -0.180800
     22 CMC        73.9832   59.0449   43.3626 a3         1 CLA     -0.134000
     23 CMD        71.9663   57.0038   35.7146 a3         1 CLA     -0.141100
     24 C1         81.9599   55.3492   32.5070 a2         1 CLA      0.023000
     25 C1A        78.0747   58.3145   35.5713 ac         1 CLA     -0.015100
     26 C1B        79.2795   60.1341   39.3913 cr         1 CLA      0.054700
     27 C1C        75.2602   59.2214   41.1050 cn         1 CLA     -0.005600
     28 C1D        73.9751   57.8048   37.1685 ap         1 CLA     -0.047300
     29 O1A        81.1325   57.2728   30.7459 o2         1 CLA     -0.610800
     30 O1D        77.9329   56.2191   32.1780 o2         1 CLA     -0.558200
     31 C2         82.9350   54.8481   33.5318 c8         1 CLA     -0.325100
     32 C2A        79.4349   58.1739   34.8603 a1         1 CLA      0.098600
     33 C2B        79.8329   60.5659   40.6751 cb         1 CLA      0.088500
     34 C2C        74.0248   58.9147   41.8467 cb         1 CLA      0.053700
     35 C2D        73.4009   57.3357   35.9640 cb         1 CLA      0.058900
     36 O2A        81.6147   56.6952   32.9495 o1         1 CLA     -0.437200
     37 O2D        77.2504   54.9895   33.9444 o1         1 CLA     -0.357600
     38 C3         83.9233   54.0401   33.3090 c5         1 CLA      0.031200
     39 C3A        80.4598   58.9075   35.8785 a1         1 CLA      0.166800
     40 C3B        78.7194   60.8399   41.5971 cb         1 CLA      0.035000
     41 C3C        73.1196   58.3914   40.9458 cb         1 CLA     -0.089900
     42 C3D        74.4721   57.3367   35.1034 cb         1 CLA     -0.035900
     43 C4         83.7362   52.5233   33.3863 a3         1 CLA     -0.053300
     44 C4A        79.5180   59.1809   37.0708 ac         1 CLA      0.001800
     45 C4B        77.6249   60.1509   40.9836 cn         1 CLA     -0.020900
     46 C4C        73.8144   58.3328   39.6886 cr         1 CLA     -0.044400
     47 C4D        75.5854   57.8752   35.7591 c6         1 CLA     -0.046000
     48 C5         85.3263   54.5676   33.2120 a2         1 CLA     -0.070400
     49 C6         85.7453   55.8400   33.9974 a2         1 CLA      0.043900
     50 C7         85.5551   55.7828   35.5151 a2         1 CLA     -0.150000
     51 C8         85.3015   57.1625   36.2247 a1         1 CLA      0.064200
     52 C9         86.2465   58.2816   35.8516 a3         1 CLA     -0.259300
     53 C10        85.1450   56.9327   37.8040 a2         1 CLA     -0.071900
     54 C11        84.9250   58.2008   38.7034 a2         1 CLA      0.014500
     55 C12        85.1185   57.8743   40.1592 a2         1 CLA     -0.112100
     56 C13        84.9720   59.1157   41.0985 a1         1 CLA      0.089200
     57 C14        86.1284   60.1170   40.9194 a3         1 CLA     -0.239100
     58 C15        84.9503   58.5983   42.5644 a2         1 CLA     -0.102200
     59 C16        83.5678   58.1643   43.0101 a2         1 CLA      0.023900
     60 C17        83.5883   57.6488   44.4371 a2         1 CLA     -0.105700
     61 C18        84.3198   56.3099   44.8106 a1         1 CLA      0.206800
     62 C19        84.1915   56.0352   46.3152 a3         1 CLA     -0.280100
     63 C20        83.9212   55.1081   43.8777 a3         1 CLA     -0.280100
     64 NC         75.0152   58.9729   39.8194 nx         1 CLA     -0.309200
     65 MG         76.5340   59.1261   38.3464 mg         1 CLA      0.895000
     66 HMD3       72.0171   56.6558   34.6518 dc         1 CLA      0.064300
     67 HMD2       71.5977   56.1995   36.3148 dc         1 CLA      0.064300
     68 HMD1       71.2983   57.9333   35.6885 dc         1 CLA      0.064300
     69 HMC3       74.3166   60.0951   43.6534 dc         1 CLA      0.052100
     70 HMC2       72.9011   58.9931   43.6554 dc         1 CLA      0.052100
     71 HMC1       74.4847   58.2477   43.9629 dc         1 CLA      0.052100
     72 HMB3       81.8243   59.8599   40.5864 dc         1 CLA      0.063600
     73 HMB2       81.6365   61.5488   40.3507 dc         1 CLA      0.063600
     74 HMB1       81.5617   60.6613   41.9542 dc         1 CLA      0.063600
     75 HMA3       82.3203   58.1695   35.4992 dc         1 CLA      0.058300
     76 HMA2       82.0461   58.5675   37.1757 dc         1 CLA      0.058300
     77 HMA1       81.4160   57.0042   36.5428 dc         1 CLA      0.058300
     78 HED3       78.0373   53.8767   32.4031 dc         1 CLA      0.079300
     79 HED2       79.2002   54.1846   33.7534 dc         1 CLA      0.079300
     80 HED1       77.9527   52.9203   33.9327 dc         1 CLA      0.079300
     81 HBC3       72.4800   55.6704   41.7618 dc         1 CLA      0.016300
     82 HBC2       70.8760   55.7194   41.0599 dc         1 CLA      0.016300
     83 HBC1       72.1972   55.7854   39.9776 dc         1 CLA      0.016300
     84 HBB2       79.0844   63.0039   44.1657 da         1 CLA      0.183000
     85 HBB1       80.1793   62.9140   42.6576 da         1 CLA      0.183000
     86 HBA2       80.4879   59.5447   31.6522 dc         1 CLA      0.029400
     87 HBA1       81.5209   59.4214   32.8649 dc         1 CLA      0.029400
     88 HAC2       71.4529   57.8251   42.2284 dc         1 CLA      0.029300
     89 HAC1       71.0414   57.9212   40.4891 dc         1 CLA      0.029300
     90 HAA2       78.6926   58.5612   32.9093 dc         1 CLA      0.028700
     91 HAA1       79.2250   60.0347   33.6427 dc         1 CLA      0.028700
     92 H203       84.2454   54.1891   44.4258 dc         1 CLA      0.065600
     93 H202       82.8917   54.9140   43.7136 dc         1 CLA      0.065600
     94 H201       84.4180   55.2353   42.8821 dc         1 CLA      0.065600
     95 H193       84.8673   55.1980   46.5753 dc         1 CLA      0.065600
     96 H192       84.4661   56.8796   46.9949 dc         1 CLA      0.065600
     97 H191       83.1989   55.6322   46.5573 dc         1 CLA      0.065600
     98 H172       83.9476   58.4455   45.0132 dc         1 CLA      0.027600
     99 H171       82.4807   57.6137   44.7533 dc         1 CLA      0.027600
    100 H162       83.0068   59.1342   43.0218 dc         1 CLA      0.002900
    101 H161       83.1166   57.4523   42.3864 dc         1 CLA      0.002900
    102 H152       85.6304   57.7192   42.6747 dc         1 CLA      0.029100
    103 H151       85.2315   59.4505   43.1923 dc         1 CLA      0.029100
    104 H143       86.1795   60.9264   41.6997 dc         1 CLA      0.063600
    105 H142       87.0810   59.6260   40.8865 dc         1 CLA      0.063600
    106 H141       86.0251   60.6803   39.9845 dc         1 CLA      0.063600
    107 H122       84.2425   57.2059   40.4798 dc         1 CLA      0.032500
    108 H121       86.1127   57.3984   40.3517 dc         1 CLA      0.032500
    109 H112       85.6558   58.9787   38.4991 dc         1 CLA      0.006600
    110 H111       83.9290   58.6021   38.4618 dc         1 CLA      0.006600
    111 H102       84.3920   56.2029   38.0464 dc         1 CLA      0.024100
    112 H101       86.0303   56.3763   38.1130 dc         1 CLA      0.024100
    113 HHD        72.2421   57.5846   38.3616 da         1 CLA      0.174300
    114 HHC        76.4017   59.8900   42.6625 da         1 CLA      0.136800
    115 HHB        81.0016   60.2068   38.2379 da         1 CLA      0.138300
    116 HBD        76.5094   58.1046   32.9921 dc         1 CLA      0.107700
    117 HAB        77.9373   61.2368   43.6509 da         1 CLA      0.155200
    118 H93        86.6532   58.2009   34.8193 dc         1 CLA      0.069500
    119 H92        85.7327   59.2116   36.0330 dc         1 CLA      0.069500
    120 H91        87.1297   58.1770   36.4928 dc         1 CLA      0.069500
    121 H8         84.3272   57.4999   35.7554 dc         1 CLA      0.029300
    122 H72        84.8818   55.0171   35.8588 dc         1 CLA      0.044400
    123 H71        86.5190   55.5405   35.9461 dc         1 CLA      0.044400
    124 H62        86.7788   55.9141   33.9430 dc         1 CLA      0.015600
    125 H61        85.2043   56.6970   33.5867 dc         1 CLA      0.015600
    126 H52        85.9600   53.7066   33.5749 dc         1 CLA      0.033200
    127 H51        85.6446   54.8516   32.2061 dc         1 CLA      0.033200
    128 H43        84.0946   52.0380   32.4316 dc         1 CLA      0.037000
    129 H42        84.3058   51.9988   34.1582 dc         1 CLA      0.037000
    130 H41        82.6256   52.2897   33.5180 dc         1 CLA      0.037000
    131 H3A        80.9031   59.8402   35.4323 dc         1 CLA      0.041100
    132 H2A        79.7189   57.1070   34.7682 dc         1 CLA      0.083100
    133 H2         82.8425   55.2014   34.5125 da         1 CLA      0.180900
    134 H18        85.3375   56.4188   44.5247 dc         1 CLA     -0.003900
    135 H13        84.0841   59.6565   40.7715 dc         1 CLA      0.019700
    136 H12        81.0682   54.7311   32.4966 dc         1 CLA      0.120400
    137 H11        82.4466   55.2431   31.5546 dc         1 CLA      0.120400
    138 C1         69.2014   61.2647   49.1495 Z1         2 LUT      0.509236
    139 C2         68.9047   62.1793   50.3301 Z2         2 LUT     -0.434695
    140 C3         67.3584   62.4939   50.4343 Z3         2 LUT      0.437453
    141 O3         67.2014   63.2648   51.5562 S1         2 LUT     -0.547129
    142 C4         67.0438   63.3785   49.1869 Z4         2 LUT     -0.468603
    143 C5         67.6028   62.8470   47.9512 Z5         2 LUT      0.279246
    144 C6         68.4585   61.8202   47.8499 Z6         2 LUT     -0.305473
    145 C7         69.1380   61.5794   46.6138 Z7         2 LUT      0.069402
    146 C8         70.3268   62.0241   46.2072 Z8         2 LUT     -0.191631
    147 C9         70.8962   61.8847   44.8371 Z9         2 LUT      0.196698
    148 C10        71.9820   62.6196   44.4275 Y1         2 LUT     -0.208611
    149 C11        72.8143   62.7730   43.2008 Y2         2 LUT      0.030784
    150 C12        73.9849   63.4477   43.0820 Y3         2 LUT     -0.220316
    151 C13        74.8861   63.4410   41.8362 Y4         2 LUT      0.215937
    152 C14        76.1089   63.9287   42.0689 Y5         2 LUT     -0.185793
    153 C15        77.1306   63.9593   41.0737 Y6         2 LUT     -0.057835
    154 C16        68.5825   59.8763   49.3661 Y7         2 LUT     -0.405615
    155 C17        70.6931   61.0164   49.1261 Y7         2 LUT     -0.405615
    156 C18        67.3997   63.8693   46.8040 Y9         2 LUT     -0.369639
    157 C19        70.3019   60.9656   43.8184 W1         2 LUT     -0.333362
    158 C20        74.3616   62.9726   40.5182 W2         2 LUT     -0.323439
    159 C21        87.9414   65.7319   34.4413 Z1         2 LUT      0.406104
    160 C22        88.5375   65.0024   33.2476 Z2         2 LUT     -0.404965
    161 C23        88.5322   65.8917   32.0220 Z3         2 LUT      0.391255
    162 O23        88.7639   64.9333   30.9779 S1         2 LUT     -0.528210
    163 C24        87.3118   66.7884   31.8307 W6         2 LUT     -0.258361
    164 C25        86.2886   66.8588   32.7266 Z5         2 LUT      0.133546
    165 C26        86.4343   66.0830   34.0051 W8         2 LUT     -0.147008
    166 C27        85.6696   66.8103   35.1440 Z7         2 LUT      0.023843
    167 C28        84.6835   66.3652   35.9257 Z8         2 LUT     -0.216987
    168 C29        84.2701   66.6316   37.3269 Z9         2 LUT      0.206524
    169 C30        83.1626   66.0011   37.7167 Y1         2 LUT     -0.215556
    170 C31        82.4066   66.1247   38.9660 Y2         2 LUT      0.025142
    171 C32        81.3102   65.4658   39.2943 Y3         2 LUT     -0.212209
    172 C33        80.3647   65.6761   40.4415 Y4         2 LUT      0.240937
    173 C34        79.1818   65.0450   40.3595 Y5         2 LUT     -0.218862
    174 C35        78.1697   64.7876   41.2760 Y6         2 LUT     -0.023547
    175 C36        88.8359   66.9597   34.8271 Y7         2 LUT     -0.393485
    176 C37        88.0392   64.7442   35.6419 Y7         2 LUT     -0.393485
    177 C38        85.0983   67.8176   32.5206 Y9         2 LUT     -0.387526
    178 C39        85.0647   67.7120   38.0690 W1         2 LUT     -0.322618
    179 C40        80.6094   66.8299   41.3948 W2         2 LUT     -0.358472
    180 H403       80.2863   67.7226   40.9189 R7         2 LUT      0.097720
    181 H402       79.9694   66.7081   42.2813 R7         2 LUT      0.097720
    182 H401       81.5493   66.9186   41.7178 R7         2 LUT      0.097720
    183 H393       84.4121   68.5638   38.3448 R4         2 LUT      0.082505
    184 H392       85.5630   67.2945   38.9325 R4         2 LUT      0.082505
    185 H391       85.8982   68.1660   37.5379 R4         2 LUT      0.082505
    186 H383       84.9203   67.9398   31.4649 R1         2 LUT      0.104030
    187 H382       84.2312   67.4722   33.1110 R1         2 LUT      0.104030
    188 H381       85.3172   68.7904   32.9671 R1         2 LUT      0.104030
    189 H373       89.0631   64.5432   35.9754 T4         2 LUT      0.089537
    190 H372       87.5466   65.0902   36.5304 T4         2 LUT      0.089537
    191 H371       87.5696   63.7912   35.3804 T4         2 LUT      0.089537
    192 H363       88.4967   67.4318   35.7322 T4         2 LUT      0.089537
    193 H362       89.8916   66.6268   35.0254 T4         2 LUT      0.089537
    194 H361       88.8520   67.7290   34.0188 T4         2 LUT      0.089537
    195 H222       89.5676   64.5895   33.3553 U2         2 LUT      0.127376
    196 H221       87.9965   64.0805   32.9826 U2         2 LUT      0.127376
    197 H203       73.3241   63.2563   40.5429 R7         2 LUT      0.087068
    198 H202       74.8828   63.5963   39.6962 R7         2 LUT      0.087068
    199 H201       74.2524   61.8892   40.3246 R7         2 LUT      0.087068
    200 H193       70.3488   59.9762   44.2290 R4         2 LUT      0.089716
    201 H192       69.2619   61.2264   43.7194 R4         2 LUT      0.089716
    202 H191       70.7928   60.9336   42.8603 R4         2 LUT      0.089716
    203 H183       67.3546   63.2208   45.8518 R1         2 LUT      0.094572
    204 H182       66.5351   64.5160   46.8493 R1         2 LUT      0.094572
    205 H181       68.2387   64.5882   46.7392 R1         2 LUT      0.094572
    206 H173       71.1099   60.5093   50.0299 T4         2 LUT      0.093752
    207 H172       71.0285   60.4622   48.2646 T4         2 LUT      0.093752
    208 H171       71.2489   61.9512   49.0371 T4         2 LUT      0.093752
    209 H163       68.8572   59.4647   50.3365 T4         2 LUT      0.093752
    210 H162       67.4981   59.8789   49.3505 T4         2 LUT      0.093752
    211 H161       68.9277   59.0721   48.6163 T4         2 LUT      0.093752
    212 HO3        66.7859   62.8050   52.2591 Q1         2 LUT      0.300121
    213 H8         70.9207   62.6083   46.9103 U7         2 LUT      0.080784
    214 H7         68.5995   61.0537   45.7903 U6         2 LUT      0.042190
    215 H42        65.8820   63.4001   48.9988 U5         2 LUT      0.145166
    216 H41        67.4488   64.3541   49.2855 U5         2 LUT      0.145166
    217 H35        78.2593   65.4182   42.1544 T3         2 LUT      0.077919
    218 H34        79.1438   64.3516   39.5743 T2         2 LUT      0.073626
    219 H32        80.9299   64.8213   38.4366 T1         2 LUT      0.092510
    220 H31        82.8905   66.6424   39.7827 U9         2 LUT      0.070048
    221 H30        82.7244   65.3169   37.0215 U8         2 LUT      0.085442
    222 H3         66.6994   61.5818   50.3580 U3         2 LUT     -0.031596
    223 H28        84.1105   65.6077   35.4606 U7         2 LUT      0.084728
    224 H27        86.2261   67.6910   35.5074 U6         2 LUT      0.087291
    225 H26        86.1328   65.0667   33.6942 Q6         2 LUT      0.075325
    226 H24        87.2288   67.3659   30.8391 Q5         2 LUT      0.094482
    227 H23        89.3927   66.6184   32.0796 U3         2 LUT     -0.024869
    228 H22        69.1940   61.8553   51.3164 U2         2 LUT      0.127376
    229 H21        69.4510   63.1637   50.2737 U2         2 LUT      0.127376
    230 H15        77.1460   63.3673   40.1535 T3         2 LUT      0.093200
    231 H14        76.4637   64.2693   43.0166 T2         2 LUT      0.068865
    232 H12        74.4387   63.8181   43.9274 T1         2 LUT      0.095507
    233 H11        72.5506   62.0907   42.3299 U9         2 LUT      0.068930
    234 H10        72.3842   63.2506   45.2386 U8         2 LUT      0.083911
    235 H1         88.6419   65.3444   30.1165 Q1         2 LUT      0.297311
@<TRIPOS>BOND
    1     6     1 1
    2     7     2 1
    3     8     3 1
    4     9     4 1
    5    11     4 1
    6    12     6 1
    7    13     9 1
    8    16     9 1
    9    25     5 1
   10    25    16 1
   11    26    10 1
   12    26    17 1
   13    27    18 1
   14    28    14 1
   15    28    19 1
   16    29    12 1
   17    30    13 1
   18    31    24 1
   19    32     1 1
   20    32    25 1
   21    33    21 1
   22    33    26 1
   23    34    22 1
   24    34    27 1
   25    35    23 1
   26    35    28 1
   27    36    12 1
   28    36    24 1
   29    37    13 1
   30    37    15 1
   31    38    31 1
   32    39    20 1
   33    39    32 1
   34    40     2 1
   35    40    33 1
   36    41     3 1
   37    41    34 1
   38    42     4 1
   39    42    35 1
   40    43    38 1
   41    44     5 1
   42    44    17 1
   43    44    39 1
   44    45    10 1
   45    45    18 1
   46    45    40 1
   47    46    19 1
   48    46    41 1
   49    47    14 1
   50    47    16 1
   51    47    42 1
   52    48    38 1
   53    49    48 1
   54    50    49 1
   55    51    50 1
   56    52    51 1
   57    53    51 1
   58    54    53 1
   59    55    54 1
   60    56    55 1
   61    57    56 1
   62    58    56 1
   63    59    58 1
   64    60    59 1
   65    61    60 1
   66    62    61 1
   67    63    61 1
   68    64    27 1
   69    64    46 1
   70    65     5 1
   71    65    10 1
   72    65    64 1
   73    65    14 1
   74    66    23 1
   75    67    23 1
   76    68    23 1
   77    69    22 1
   78    70    22 1
   79    71    22 1
   80    72    21 1
   81    73    21 1
   82    74    21 1
   83    75    20 1
   84    76    20 1
   85    77    20 1
   86    78    15 1
   87    79    15 1
   88    80    15 1
   89    81     8 1
   90    82     8 1
   91    83     8 1
   92    84     7 1
   93    85     7 1
   94    86     6 1
   95    87     6 1
   96    88     3 1
   97    89     3 1
   98    90     1 1
   99    91     1 1
  100    92    63 1
  101    93    63 1
  102    94    63 1
  103    95    62 1
  104    96    62 1
  105    97    62 1
  106    98    60 1
  107    99    60 1
  108   100    59 1
  109   101    59 1
  110   102    58 1
  111   103    58 1
  112   104    57 1
  113   105    57 1
  114   106    57 1
  115   107    55 1
  116   108    55 1
  117   109    54 1
  118   110    54 1
  119   111    53 1
  120   112    53 1
  121   113    19 1
  122   114    18 1
  123   115    17 1
  124   116     9 1
  125   117     2 1
  126   118    52 1
  127   119    52 1
  128   120    52 1
  129   121    51 1
  130   122    50 1
  131   123    50 1
  132   124    49 1
  133   125    49 1
  134   126    48 1
  135   127    48 1
  136   128    43 1
  137   129    43 1
  138   130    43 1
  139   131    39 1
  140   132    32 1
  141   133    31 1
  142   134    61 1
  143   135    56 1
  144   136    24 1
  145   137    24 1
  146   139   138 1
  147   140   139 1
  148   141   140 1
  149   142   140 1
  150   143   142 1
  151   144   138 1
  152   144   143 1
  153   145   144 1
  154   146   145 1
  155   147   146 1
  156   148   147 1
  157   149   148 1
  158   150   149 1
  159   151   150 1
  160   152   151 1
  161   153   152 1
  162   154   138 1
  163   155   138 1
  164   156   143 1
  165   157   147 1
  166   158   151 1
  167   160   159 1
  168   161   160 1
  169   162   161 1
  170   163   161 1
  171   164   163 1
  172   165   159 1
  173   165   164 1
  174   166   165 1
  175   167   166 1
  176   168   167 1
  177   169   168 1
  178   170   169 1
  179   171   170 1
  180   172   171 1
  181   173   172 1
  182   174   153 1
  183   174   173 1
  184   175   159 1
  185   176   159 1
  186   177   164 1
  187   178   168 1
  188   179   172 1
  189   180   179 1
  190   181   179 1
  191   182   179 1
  192   183   178 1
  193   184   178 1
  194   185   178 1
  195   186   177 1
  196   187   177 1
  197   188   177 1
  198   189   176 1
  199   190   176 1
  200   191   176 1
  201   192   175 1
  202   193   175 1
  203   194   175 1
  204   195   160 1
  205   196   160 1
  206   197   158 1
  207   198   158 1
  208   199   158 1
  209   200   157 1
  210   201   157 1
  211   202   157 1
  212   203   156 1
  213   204   156 1
  214   205   156 1
  215   206   155 1
  216   207   155 1
  217   208   155 1
  218   209   154 1
  219   210   154 1
  220   211   154 1
  221   212   141 1
  222   213   146 1
  223   214   145 1
  224   215   142 1
  225   216   142 1
  226   217   174 1
  227   218   173 1
  228   219   171 1
  229   220   170 1
  230   221   169 1
  231   222   140 1
  232   223   167 1
  233   224   166 1
  234   225   165 1
  235   226   163 1
  236   227   161 1
  237   228   139 1
  238   229   139 1
  239   230   153 1
  240   231   152 1
  241   232   150 1
  242   233   149 1
  243   234   148 1
  244   235   162 1
  245   65    153 1
  246   65    174 1
@<TRIPOS>SUBSTRUCTURE
      1 CLA               1 ****               0 ****  **** 
      2 LUT             138 ****               0 ****  **** 
