@<TRIPOS>MOLECULE
Cpptraj generated mol2 file.
  235   246     2     0     0
SMALL
USER_CHARGES


@<TRIPOS>ATOM
      1 CAA        77.8211   58.9381   33.5270 a2         1 CLA     -0.055900
      2 CAB        77.7814   61.9370   42.9685 c8         1 CLA     -0.148500
      3 CAC        70.8709   57.9501   42.1816 a2         1 CLA     -0.012600
      4 CAD        73.7318   56.0836   34.6475 ck         1 CLA      0.398800
      5 NA         76.6775   59.1315   36.9694 ns         1 CLA     -0.225500
      6 CBA        79.0878   58.7262   32.5393 a2         1 CLA     -0.135000
      7 CBB        78.4646   63.0458   43.3696 c0         1 CLA     -0.395200
      8 CBC        71.0036   56.4123   42.1360 a3         1 CLA     -0.037700
      9 CBD        75.1812   56.6875   34.4402 a1         1 CLA     -0.053900
     10 NB         76.5694   60.4764   39.6610 nm         1 CLA     -0.295700
     11 OBD        73.1435   55.2704   33.9604 o2         1 CLA     -0.494600
     12 CGA        79.4490   57.3330   32.1223 c4         1 CLA      0.827000
     13 CGD        76.1980   55.5072   34.2844 c4         1 CLA      0.655300
     14 ND         73.9618   58.1759   37.5405 nm         1 CLA     -0.291600
     15 CED        76.4253   53.1302   34.5135 a3         1 CLA      0.005400
     16 CHA        75.4706   57.6923   35.5145 cs         1 CLA     -0.123800
     17 CHB        78.3874   60.5187   38.0716 aa         1 CLA     -0.291900
     18 CHC        75.2561   60.5806   41.7579 aa         1 CLA     -0.090400
     19 CHD        72.1900   57.7058   39.2713 aa         1 CLA     -0.052000
     20 CMA        80.1798   58.4854   36.3668 a3         1 CLA     -0.230700
     21 CMB        79.9007   61.9258   40.4259 a3         1 CLA     -0.180800
     22 CMC        72.8858   59.9895   43.7184 a3         1 CLA     -0.134000
     23 CMD        71.0790   55.7766   36.9246 a3         1 CLA     -0.141100
     24 C1         80.5709   55.2855   32.9050 a2         1 CLA      0.023000
     25 C1A        76.5822   58.4346   35.7927 ac         1 CLA     -0.015100
     26 C1B        77.8562   60.7806   39.3865 cr         1 CLA      0.054700
     27 C1C        74.1467   59.8090   41.4426 cn         1 CLA     -0.005600
     28 C1D        72.7982   57.5359   37.9743 ap         1 CLA     -0.047300
     29 O1A        79.2952   56.9175   31.0093 o2         1 CLA     -0.610800
     30 O1D        77.3003   55.5434   33.7568 o2         1 CLA     -0.558200
     31 C2         81.2402   54.9000   34.1607 c8         1 CLA     -0.325100
     32 C2A        77.9122   58.4124   35.0142 a1         1 CLA      0.098600
     33 C2B        78.4710   61.4669   40.4500 cb         1 CLA      0.088500
     34 C2C        73.0245   59.5046   42.2985 cb         1 CLA      0.053700
     35 C2D        72.2785   56.6545   36.8673 cb         1 CLA      0.058900
     36 O2A        80.0679   56.6534   33.1460 o1         1 CLA     -0.437200
     37 O2D        75.7631   54.3890   34.9361 o1         1 CLA     -0.357600
     38 C3         82.3749   54.1516   34.2706 c5         1 CLA      0.031200
     39 C3A        78.9070   59.2140   35.9170 a1         1 CLA      0.166800
     40 C3B        77.5918   61.5675   41.5008 cb         1 CLA      0.035000
     41 C3C        72.1436   58.6116   41.6326 cb         1 CLA     -0.089900
     42 C3D        73.3339   56.7011   35.9220 cb         1 CLA     -0.035900
     43 C4         82.3680   52.6631   34.6506 a3         1 CLA     -0.053300
     44 C4A        77.9306   59.7063   37.0309 ac         1 CLA      0.001800
     45 C4B        76.3725   60.8635   40.9901 cn         1 CLA     -0.020900
     46 C4C        72.7354   58.5190   40.3043 cr         1 CLA     -0.044400
     47 C4D        74.3671   57.5926   36.3651 c6         1 CLA     -0.046000
     48 C5         83.6560   54.9113   33.8720 a2         1 CLA     -0.070400
     49 C6         83.7829   56.3156   34.5371 a2         1 CLA      0.043900
     50 C7         83.8648   56.3890   36.0986 a2         1 CLA     -0.150000
     51 C8         84.0268   57.8039   36.7823 a1         1 CLA      0.064200
     52 C9         85.2453   58.6198   36.2129 a3         1 CLA     -0.259300
     53 C10        84.2480   57.5400   38.3700 a2         1 CLA     -0.071900
     54 C11        82.8501   57.2910   39.0139 a2         1 CLA      0.014500
     55 C12        82.9379   57.3609   40.5658 a2         1 CLA     -0.112100
     56 C13        81.7554   56.7129   41.4292 a1         1 CLA      0.089200
     57 C14        80.4730   57.4678   41.3209 a3         1 CLA     -0.239100
     58 C15        82.2365   56.2279   42.8986 a2         1 CLA     -0.102200
     59 C16        82.7612   57.3984   43.7332 a2         1 CLA      0.023900
     60 C17        83.0861   57.0554   45.1561 a2         1 CLA     -0.105700
     61 C18        84.0296   58.0168   45.9030 a1         1 CLA      0.206800
     62 C19        83.3421   59.3401   46.1671 a3         1 CLA     -0.280100
     63 C20        84.3796   57.3566   47.2416 a3         1 CLA     -0.280100
     64 NC         73.8875   59.2676   40.2340 nx         1 CLA     -0.309200
     65 MG         75.1564   59.4591   38.4799 mg         1 CLA      0.895000
     66 HMD3       70.1918   56.4088   36.7447 dc         1 CLA      0.064300
     67 HMD2       70.9629   54.9178   36.2320 dc         1 CLA      0.064300
     68 HMD1       71.0749   55.3442   37.9299 dc         1 CLA      0.064300
     69 HMC3       71.9343   59.6735   44.1569 dc         1 CLA      0.052100
     70 HMC2       73.8246   59.7980   44.2743 dc         1 CLA      0.052100
     71 HMC1       73.0004   61.1038   43.7054 dc         1 CLA      0.052100
     72 HMB3       79.9603   62.7778   39.7279 dc         1 CLA      0.063600
     73 HMB2       80.2438   62.2399   41.3837 dc         1 CLA      0.063600
     74 HMB1       80.5807   61.1257   40.2431 dc         1 CLA      0.063600
     75 HMA3       80.7720   59.0894   37.0135 dc         1 CLA      0.058300
     76 HMA2       79.8107   57.5925   36.9299 dc         1 CLA      0.058300
     77 HMA1       80.7871   58.1443   35.5250 dc         1 CLA      0.058300
     78 HED3       75.9314   52.3109   35.0662 dc         1 CLA      0.079300
     79 HED2       76.3249   52.9734   33.4528 dc         1 CLA      0.079300
     80 HED1       77.4529   53.1531   34.8704 dc         1 CLA      0.079300
     81 HBC3       71.9479   56.0384   42.6139 dc         1 CLA      0.016300
     82 HBC2       70.0731   55.9855   42.6458 dc         1 CLA      0.016300
     83 HBC1       70.9149   55.9819   41.1440 dc         1 CLA      0.016300
     84 HBB2       78.5513   63.2085   44.4824 da         1 CLA      0.183000
     85 HBB1       78.9608   63.8053   42.7326 da         1 CLA      0.183000
     86 HBA2       78.7804   59.1412   31.5724 dc         1 CLA      0.029400
     87 HBA1       80.0139   59.2342   32.8737 dc         1 CLA      0.029400
     88 HAC2       70.5906   58.2303   43.1947 dc         1 CLA      0.029300
     89 HAC1       69.9494   58.2561   41.6343 dc         1 CLA      0.029300
     90 HAA2       76.9889   58.3241   33.2104 dc         1 CLA      0.028700
     91 HAA1       77.5529   60.0105   33.5290 dc         1 CLA      0.028700
     92 H203       84.9959   58.1447   47.7675 dc         1 CLA      0.065600
     93 H202       83.5011   57.1143   47.9162 dc         1 CLA      0.065600
     94 H201       84.9155   56.4511   47.0888 dc         1 CLA      0.065600
     95 H193       83.0294   59.8256   45.2179 dc         1 CLA      0.065600
     96 H192       82.4453   59.1522   46.7822 dc         1 CLA      0.065600
     97 H191       84.0945   59.9267   46.8330 dc         1 CLA      0.065600
     98 H172       82.1554   56.9483   45.7038 dc         1 CLA      0.027600
     99 H171       83.4710   56.0853   45.1326 dc         1 CLA      0.027600
    100 H162       83.7503   57.5735   43.2716 dc         1 CLA      0.002900
    101 H161       82.1122   58.3005   43.6792 dc         1 CLA      0.002900
    102 H152       81.3373   55.8493   43.4129 dc         1 CLA      0.029100
    103 H151       82.9737   55.4228   42.7152 dc         1 CLA      0.029100
    104 H143       80.2240   57.5688   40.2555 dc         1 CLA      0.063600
    105 H142       79.6694   57.0605   41.9181 dc         1 CLA      0.063600
    106 H141       80.7136   58.4351   41.6655 dc         1 CLA      0.063600
    107 H122       83.7798   56.8426   40.9505 dc         1 CLA      0.032500
    108 H121       83.0724   58.3184   40.9377 dc         1 CLA      0.032500
    109 H112       82.0284   58.0675   38.7104 dc         1 CLA      0.006600
    110 H111       82.4523   56.3342   38.7449 dc         1 CLA      0.006600
    111 H102       84.7927   56.6787   38.6238 dc         1 CLA      0.024100
    112 H101       84.7482   58.3987   38.8777 dc         1 CLA      0.024100
    113 HHD        71.3099   57.1302   39.4540 da         1 CLA      0.174300
    114 HHC        75.2270   60.9766   42.8022 da         1 CLA      0.136800
    115 HHB        79.4404   60.9283   37.9981 da         1 CLA      0.138300
    116 HBD        75.0450   57.2325   33.4546 dc         1 CLA      0.107700
    117 HAB        77.2824   61.3351   43.7221 da         1 CLA      0.155200
    118 H93        84.9383   58.6931   35.1931 dc         1 CLA      0.069500
    119 H92        85.4668   59.5322   36.7945 dc         1 CLA      0.069500
    120 H91        86.0993   57.9057   36.2086 dc         1 CLA      0.069500
    121 H8         83.1261   58.4390   36.5631 dc         1 CLA      0.029300
    122 H72        82.9967   55.9056   36.4897 dc         1 CLA      0.044400
    123 H71        84.7785   55.8552   36.3796 dc         1 CLA      0.044400
    124 H62        84.6644   56.8029   34.0034 dc         1 CLA      0.015600
    125 H61        82.8852   56.8499   34.2203 dc         1 CLA      0.015600
    126 H52        84.5541   54.3245   34.1117 dc         1 CLA      0.033200
    127 H51        83.5547   54.9826   32.7800 dc         1 CLA      0.033200
    128 H43        81.3115   52.3268   34.7952 dc         1 CLA      0.037000
    129 H42        82.9884   52.0940   33.9206 dc         1 CLA      0.037000
    130 H41        82.8107   52.3881   35.6221 dc         1 CLA      0.037000
    131 H3A        79.2614   60.1686   35.3695 dc         1 CLA      0.041100
    132 H2A        78.3160   57.3908   34.9823 dc         1 CLA      0.083100
    133 H2         80.8591   55.4912   34.9982 da         1 CLA      0.180900
    134 H18        84.9468   58.1133   45.3230 dc         1 CLA     -0.003900
    135 H13        81.5085   55.6934   41.0000 dc         1 CLA      0.019700
    136 H12        79.6523   54.6312   32.7937 dc         1 CLA      0.120400
    137 H11        81.2764   55.2344   32.0434 dc         1 CLA      0.120400
    138 C1         68.2760   61.1236   49.2230 Z1         2 LUT      0.509236
    139 C2         68.1386   62.0834   50.4592 Z2         2 LUT     -0.434695
    140 C3         66.7677   62.6848   50.5057 Z3         2 LUT      0.437453
    141 O3         66.7881   63.4251   51.6970 S1         2 LUT     -0.547129
    142 C4         66.4258   63.5124   49.3251 Z4         2 LUT     -0.468603
    143 C5         66.7768   62.8767   48.0156 Z5         2 LUT      0.279246
    144 C6         67.5376   61.7738   47.9391 Z6         2 LUT     -0.305473
    145 C7         68.1142   61.5437   46.6022 Z7         2 LUT      0.069402
    146 C8         69.0223   62.2938   45.9056 Z8         2 LUT     -0.191631
    147 C9         69.7256   62.0764   44.6142 Z9         2 LUT      0.196698
    148 C10        70.6832   63.0133   44.2614 Y1         2 LUT     -0.208611
    149 C11        71.3607   63.1158   42.9916 Y2         2 LUT      0.030784
    150 C12        72.4337   63.9036   42.6980 Y3         2 LUT     -0.220316
    151 C13        73.3444   63.8679   41.5556 Y4         2 LUT      0.215937
    152 C14        74.4900   64.6228   41.5879 Y5         2 LUT     -0.185793
    153 C15        75.5406   64.4870   40.6230 Y6         2 LUT     -0.057835
    154 C16        67.5825   59.8707   49.5766 Y7         2 LUT     -0.405615
    155 C17        69.7007   60.8794   48.8267 Y7         2 LUT     -0.405615
    156 C18        66.4795   63.8907   46.9208 Y9         2 LUT     -0.369639
    157 C19        69.2403   60.8135   43.8350 W1         2 LUT     -0.333362
    158 C20        72.7952   62.9970   40.4151 W2         2 LUT     -0.323439
    159 C21        87.1000   65.4423   34.7645 Z1         2 LUT      0.406104
    160 C22        87.7999   64.8144   33.4624 Z2         2 LUT     -0.404965
    161 C23        87.8514   65.8048   32.2108 Z3         2 LUT      0.391255
    162 O23        88.4567   65.1072   31.1541 S1         2 LUT     -0.528210
    163 C24        86.5774   66.6662   32.1043 W6         2 LUT     -0.258361
    164 C25        85.5909   66.7787   32.9971 Z5         2 LUT      0.133546
    165 C26        85.6889   66.0325   34.3193 W8         2 LUT     -0.147008
    166 C27        85.0330   66.8112   35.4184 Z7         2 LUT      0.023843
    167 C28        83.7534   66.5846   35.8226 Z8         2 LUT     -0.216987
    168 C29        83.2522   67.1253   37.1557 Z9         2 LUT      0.206524
    169 C30        82.0226   66.5757   37.5071 Y1         2 LUT     -0.215556
    170 C31        81.2992   66.6014   38.7523 Y2         2 LUT      0.025142
    171 C32        80.0408   65.9798   38.8070 Y3         2 LUT     -0.212209
    172 C33        79.1172   65.8566   39.9508 Y4         2 LUT      0.240937
    173 C34        77.9083   65.2129   39.8369 Y5         2 LUT     -0.218862
    174 C35        76.7368   65.1294   40.7129 Y6         2 LUT     -0.023547
    175 C36        87.9903   66.5514   35.4275 Y7         2 LUT     -0.393485
    176 C37        86.9891   64.2017   35.7559 Y7         2 LUT     -0.393485
    177 C38        84.4820   67.7548   32.7491 Y9         2 LUT     -0.387526
    178 C39        84.1020   67.9944   38.0193 W1         2 LUT     -0.322618
    179 C40        79.4239   66.7701   41.1594 W2         2 LUT     -0.358472
    180 H403       78.9231   67.7106   41.0340 R7         2 LUT      0.097720
    181 H402       78.9381   66.4699   42.0154 R7         2 LUT      0.097720
    182 H401       80.4913   67.0085   41.4121 R7         2 LUT      0.097720
    183 H393       83.7804   68.1371   38.9985 R4         2 LUT      0.082505
    184 H392       85.1448   67.6218   38.1523 R4         2 LUT      0.082505
    185 H391       84.1891   68.9841   37.5862 R4         2 LUT      0.082505
    186 H383       83.5092   67.2572   32.7251 R1         2 LUT      0.104030
    187 H382       84.5012   68.4454   33.6161 R1         2 LUT      0.104030
    188 H381       84.5932   68.5001   31.9608 R1         2 LUT      0.104030
    189 H373       87.9688   63.7897   35.9527 T4         2 LUT      0.089537
    190 H372       86.5264   64.4530   36.7766 T4         2 LUT      0.089537
    191 H371       86.3176   63.3458   35.3721 T4         2 LUT      0.089537
    192 H363       89.0474   66.2825   35.5186 T4         2 LUT      0.089537
    193 H362       87.9270   67.4683   34.8530 T4         2 LUT      0.089537
    194 H361       87.5969   66.8073   36.4324 T4         2 LUT      0.089537
    195 H222       88.7764   64.3442   33.5880 U2         2 LUT      0.127376
    196 H221       87.1388   64.0685   33.0655 U2         2 LUT      0.127376
    197 H203       72.1369   63.6018   39.8167 R7         2 LUT      0.087068
    198 H202       73.5150   62.5107   39.8196 R7         2 LUT      0.087068
    199 H201       72.0989   62.1345   40.6561 R7         2 LUT      0.087068
    200 H193       69.5529   59.9044   44.1630 R4         2 LUT      0.089716
    201 H192       68.1684   60.7166   43.7316 R4         2 LUT      0.089716
    202 H191       69.5339   60.8626   42.8270 R4         2 LUT      0.089716
    203 H183       66.5460   65.0140   47.1280 R1         2 LUT      0.094572
    204 H182       67.0144   63.6605   45.9762 R1         2 LUT      0.094572
    205 H181       65.5071   63.6874   46.5386 R1         2 LUT      0.094572
    206 H173       70.2371   60.6333   49.7487 T4         2 LUT      0.093752
    207 H172       69.6859   60.0512   48.1751 T4         2 LUT      0.093752
    208 H171       70.1338   61.7960   48.3670 T4         2 LUT      0.093752
    209 H163       68.1870   59.3107   50.3957 T4         2 LUT      0.093752
    210 H162       66.6540   59.9984   50.0064 T4         2 LUT      0.093752
    211 H161       67.5926   59.2366   48.7422 T4         2 LUT      0.093752
    212 HO3        66.1677   63.1520   52.3590 Q1         2 LUT      0.300121
    213 H8         69.2454   63.2249   46.3788 U7         2 LUT      0.080784
    214 H7         67.9398   60.5287   46.2976 U6         2 LUT      0.042190
    215 H42        65.3602   63.7986   49.2686 U5         2 LUT      0.145166
    216 H41        66.8294   64.4869   49.3717 U5         2 LUT      0.145166
    217 H35        76.7722   65.7062   41.6255 T3         2 LUT      0.077919
    218 H34        77.7620   64.7310   38.8729 T2         2 LUT      0.073626
    219 H32        79.6818   65.6265   37.7975 T1         2 LUT      0.092510
    220 H31        81.7551   67.0547   39.5743 U9         2 LUT      0.070048
    221 H30        81.4545   66.0816   36.7328 U8         2 LUT      0.085442
    222 H3         66.0143   61.8054   50.4397 U3         2 LUT     -0.031596
    223 H28        83.1927   65.9093   35.1854 U7         2 LUT      0.084728
    224 H27        85.6733   67.4180   35.9691 U6         2 LUT      0.087291
    225 H26        85.0867   65.1779   34.1908 Q6         2 LUT      0.075325
    226 H24        86.5879   67.2777   31.2310 Q5         2 LUT      0.094482
    227 H23        88.4624   66.7151   32.3576 U3         2 LUT     -0.024869
    228 H22        68.3738   61.5852   51.4088 U2         2 LUT      0.127376
    229 H21        68.8935   62.8093   50.3201 U2         2 LUT      0.127376
    230 H15        75.4538   63.8744   39.7649 T3         2 LUT      0.093200
    231 H14        74.7459   65.1984   42.4416 T2         2 LUT      0.068865
    232 H12        72.7940   64.5049   43.5486 T1         2 LUT      0.095507
    233 H11        70.9764   62.3600   42.3676 U9         2 LUT      0.068930
    234 H10        70.8777   63.9083   44.8822 U8         2 LUT      0.083911
    235 H1         87.7723   64.6550   30.6600 Q1         2 LUT      0.297311
@<TRIPOS>BOND
    1     6     1 1
    2     7     2 1
    3     8     3 1
    4     9     4 1
    5    11     4 1
    6    12     6 1
    7    13     9 1
    8    16     9 1
    9    25     5 1
   10    25    16 1
   11    26    10 1
   12    26    17 1
   13    27    18 1
   14    28    14 1
   15    28    19 1
   16    29    12 1
   17    30    13 1
   18    31    24 1
   19    32     1 1
   20    32    25 1
   21    33    21 1
   22    33    26 1
   23    34    22 1
   24    34    27 1
   25    35    23 1
   26    35    28 1
   27    36    12 1
   28    36    24 1
   29    37    13 1
   30    37    15 1
   31    38    31 1
   32    39    20 1
   33    39    32 1
   34    40     2 1
   35    40    33 1
   36    41     3 1
   37    41    34 1
   38    42     4 1
   39    42    35 1
   40    43    38 1
   41    44     5 1
   42    44    17 1
   43    44    39 1
   44    45    10 1
   45    45    18 1
   46    45    40 1
   47    46    19 1
   48    46    41 1
   49    47    14 1
   50    47    16 1
   51    47    42 1
   52    48    38 1
   53    49    48 1
   54    50    49 1
   55    51    50 1
   56    52    51 1
   57    53    51 1
   58    54    53 1
   59    55    54 1
   60    56    55 1
   61    57    56 1
   62    58    56 1
   63    59    58 1
   64    60    59 1
   65    61    60 1
   66    62    61 1
   67    63    61 1
   68    64    27 1
   69    64    46 1
   70    65     5 1
   71    65    10 1
   72    65    64 1
   73    65    14 1
   74    66    23 1
   75    67    23 1
   76    68    23 1
   77    69    22 1
   78    70    22 1
   79    71    22 1
   80    72    21 1
   81    73    21 1
   82    74    21 1
   83    75    20 1
   84    76    20 1
   85    77    20 1
   86    78    15 1
   87    79    15 1
   88    80    15 1
   89    81     8 1
   90    82     8 1
   91    83     8 1
   92    84     7 1
   93    85     7 1
   94    86     6 1
   95    87     6 1
   96    88     3 1
   97    89     3 1
   98    90     1 1
   99    91     1 1
  100    92    63 1
  101    93    63 1
  102    94    63 1
  103    95    62 1
  104    96    62 1
  105    97    62 1
  106    98    60 1
  107    99    60 1
  108   100    59 1
  109   101    59 1
  110   102    58 1
  111   103    58 1
  112   104    57 1
  113   105    57 1
  114   106    57 1
  115   107    55 1
  116   108    55 1
  117   109    54 1
  118   110    54 1
  119   111    53 1
  120   112    53 1
  121   113    19 1
  122   114    18 1
  123   115    17 1
  124   116     9 1
  125   117     2 1
  126   118    52 1
  127   119    52 1
  128   120    52 1
  129   121    51 1
  130   122    50 1
  131   123    50 1
  132   124    49 1
  133   125    49 1
  134   126    48 1
  135   127    48 1
  136   128    43 1
  137   129    43 1
  138   130    43 1
  139   131    39 1
  140   132    32 1
  141   133    31 1
  142   134    61 1
  143   135    56 1
  144   136    24 1
  145   137    24 1
  146   139   138 1
  147   140   139 1
  148   141   140 1
  149   142   140 1
  150   143   142 1
  151   144   138 1
  152   144   143 1
  153   145   144 1
  154   146   145 1
  155   147   146 1
  156   148   147 1
  157   149   148 1
  158   150   149 1
  159   151   150 1
  160   152   151 1
  161   153   152 1
  162   154   138 1
  163   155   138 1
  164   156   143 1
  165   157   147 1
  166   158   151 1
  167   160   159 1
  168   161   160 1
  169   162   161 1
  170   163   161 1
  171   164   163 1
  172   165   159 1
  173   165   164 1
  174   166   165 1
  175   167   166 1
  176   168   167 1
  177   169   168 1
  178   170   169 1
  179   171   170 1
  180   172   171 1
  181   173   172 1
  182   174   153 1
  183   174   173 1
  184   175   159 1
  185   176   159 1
  186   177   164 1
  187   178   168 1
  188   179   172 1
  189   180   179 1
  190   181   179 1
  191   182   179 1
  192   183   178 1
  193   184   178 1
  194   185   178 1
  195   186   177 1
  196   187   177 1
  197   188   177 1
  198   189   176 1
  199   190   176 1
  200   191   176 1
  201   192   175 1
  202   193   175 1
  203   194   175 1
  204   195   160 1
  205   196   160 1
  206   197   158 1
  207   198   158 1
  208   199   158 1
  209   200   157 1
  210   201   157 1
  211   202   157 1
  212   203   156 1
  213   204   156 1
  214   205   156 1
  215   206   155 1
  216   207   155 1
  217   208   155 1
  218   209   154 1
  219   210   154 1
  220   211   154 1
  221   212   141 1
  222   213   146 1
  223   214   145 1
  224   215   142 1
  225   216   142 1
  226   217   174 1
  227   218   173 1
  228   219   171 1
  229   220   170 1
  230   221   169 1
  231   222   140 1
  232   223   167 1
  233   224   166 1
  234   225   165 1
  235   226   163 1
  236   227   161 1
  237   228   139 1
  238   229   139 1
  239   230   153 1
  240   231   152 1
  241   232   150 1
  242   233   149 1
  243   234   148 1
  244   235   162 1
  245   65    153 1
  246   65    174 1
@<TRIPOS>SUBSTRUCTURE
      1 CLA               1 ****               0 ****  **** 
      2 LUT             138 ****               0 ****  **** 
