@<TRIPOS>MOLECULE
Cpptraj generated mol2 file.
  235   246     2     0     0
SMALL
USER_CHARGES


@<TRIPOS>ATOM
      1 CAA        79.7559   58.1676   34.5020 a2         1 CLA     -0.055900
      2 CAB        80.4067   62.3084   43.4412 c8         1 CLA     -0.148500
      3 CAC        73.3148   58.4293   43.3197 a2         1 CLA     -0.012600
      4 CAD        75.4276   55.9311   36.1347 ck         1 CLA      0.398800
      5 NA         78.9076   58.8156   38.0503 ns         1 CLA     -0.225500
      6 CBA        81.0679   58.1662   33.6284 a2         1 CLA     -0.135000
      7 CBB        81.2502   61.8657   44.3954 c0         1 CLA     -0.395200
      8 CBC        73.5579   56.9756   43.4299 a3         1 CLA     -0.037700
      9 CBD        76.9165   56.2602   35.8194 a1         1 CLA     -0.053900
     10 NB         78.8488   60.4675   40.4500 nm         1 CLA     -0.295700
     11 OBD        74.7644   55.1805   35.5411 o2         1 CLA     -0.494600
     12 CGA        81.4945   56.8005   33.2682 c4         1 CLA      0.827000
     13 CGD        77.8462   55.0727   35.6538 c4         1 CLA      0.655300
     14 ND         76.0744   58.1603   38.7989 nm         1 CLA     -0.291600
     15 CED        78.4316   53.0832   36.7768 a3         1 CLA      0.005400
     16 CHA        77.4104   57.3002   36.8509 cs         1 CLA     -0.123800
     17 CHB        80.7417   60.1510   38.9162 aa         1 CLA     -0.291900
     18 CHC        77.6198   61.0086   42.5241 aa         1 CLA     -0.090400
     19 CHD        74.1994   58.2234   40.3784 aa         1 CLA     -0.052000
     20 CMA        82.1823   57.9396   37.3007 a3         1 CLA     -0.230700
     21 CMB        82.3328   61.9533   40.9326 a3         1 CLA     -0.180800
     22 CMC        75.4891   60.5357   44.7319 a3         1 CLA     -0.134000
     23 CMD        72.6812   56.3699   38.2334 a3         1 CLA     -0.141100
     24 C1         82.1748   54.6646   34.3703 a2         1 CLA      0.023000
     25 C1A        78.6417   58.0109   36.9960 ac         1 CLA     -0.015100
     26 C1B        80.1924   60.6248   40.0793 cr         1 CLA      0.054700
     27 C1C        76.4720   60.2972   42.3119 cn         1 CLA     -0.005600
     28 C1D        74.8180   57.7407   39.2294 ap         1 CLA     -0.047300
     29 O1A        81.3956   56.2619   32.1910 o2         1 CLA     -0.610800
     30 O1D        78.8231   54.9700   34.9596 o2         1 CLA     -0.558200
     31 C2         83.1213   54.3828   35.4853 c8         1 CLA     -0.325100
     32 C2A        79.9201   57.8789   36.0701 a1         1 CLA      0.098600
     33 C2B        80.9590   61.3875   41.1234 cb         1 CLA      0.088500
     34 C2C        75.4523   60.0106   43.2890 cb         1 CLA      0.053700
     35 C2D        74.1372   56.8785   38.2483 cb         1 CLA      0.058900
     36 O2A        81.8966   56.1237   34.3933 o1         1 CLA     -0.437200
     37 O2D        77.5394   54.1968   36.6284 o1         1 CLA     -0.357600
     38 C3         84.1338   53.5685   35.3532 c5         1 CLA      0.031200
     39 C3A        81.0014   58.7732   36.7975 a1         1 CLA      0.166800
     40 C3B        80.0903   61.6452   42.1609 cb         1 CLA      0.035000
     41 C3C        74.5299   59.1716   42.6982 cb         1 CLA     -0.089900
     42 C3D        75.1425   56.7007   37.3201 cb         1 CLA     -0.035900
     43 C4         83.9561   52.0918   35.8709 a3         1 CLA     -0.053300
     44 C4A        80.1809   59.3146   37.9596 ac         1 CLA      0.001800
     45 C4B        78.7731   61.0854   41.7478 cn         1 CLA     -0.020900
     46 C4C        74.8832   59.0289   41.3014 cr         1 CLA     -0.044400
     47 C4D        76.2487   57.4748   37.6611 c6         1 CLA     -0.046000
     48 C5         85.5315   54.0898   35.0209 a2         1 CLA     -0.070400
     49 C6         85.9671   55.4136   35.8735 a2         1 CLA      0.043900
     50 C7         86.6773   54.9814   37.2323 a2         1 CLA     -0.150000
     51 C8         86.9031   56.1838   38.1982 a1         1 CLA      0.064200
     52 C9         88.0658   56.9865   37.5731 a3         1 CLA     -0.259300
     53 C10        87.2667   55.7067   39.6658 a2         1 CLA     -0.071900
     54 C11        87.2557   56.8059   40.7119 a2         1 CLA      0.014500
     55 C12        87.3720   56.4034   42.2638 a2         1 CLA     -0.112100
     56 C13        88.7889   56.4005   42.9139 a1         1 CLA      0.089200
     57 C14        89.8491   55.5819   42.0818 a3         1 CLA     -0.239100
     58 C15        88.7090   55.8174   44.3669 a2         1 CLA     -0.102200
     59 C16        88.0196   56.6875   45.4433 a2         1 CLA      0.023900
     60 C17        88.2556   56.3304   46.8884 a2         1 CLA     -0.105700
     61 C18        88.0570   57.4946   47.9327 a1         1 CLA      0.206800
     62 C19        86.4733   57.6175   48.2344 a3         1 CLA     -0.280100
     63 C20        88.7761   57.0623   49.1651 a3         1 CLA     -0.280100
     64 NC         76.1552   59.6343   41.1491 nx         1 CLA     -0.309200
     65 MG         77.4392   59.4452   39.5441 mg         1 CLA      0.895000
     66 HMD3       72.4207   56.0816   39.2290 dc         1 CLA      0.064300
     67 HMD2       72.0524   57.1881   37.8924 dc         1 CLA      0.064300
     68 HMD1       72.5886   55.4806   37.6404 dc         1 CLA      0.064300
     69 HMC3       75.7054   61.6248   44.6791 dc         1 CLA      0.052100
     70 HMC2       74.4541   60.3006   45.0511 dc         1 CLA      0.052100
     71 HMC1       76.2243   60.0035   45.3003 dc         1 CLA      0.052100
     72 HMB3       82.6409   62.5797   41.7340 dc         1 CLA      0.063600
     73 HMB2       83.0817   61.1989   40.7477 dc         1 CLA      0.063600
     74 HMB1       82.2419   62.5444   40.0162 dc         1 CLA      0.063600
     75 HMA3       82.7063   57.4165   36.4551 dc         1 CLA      0.058300
     76 HMA2       82.9519   58.5942   37.7175 dc         1 CLA      0.058300
     77 HMA1       81.8000   57.2127   37.9784 dc         1 CLA      0.058300
     78 HED3       78.3574   52.4472   35.8904 dc         1 CLA      0.079300
     79 HED2       79.4896   53.2307   36.7098 dc         1 CLA      0.079300
     80 HED1       78.2129   52.4453   37.5898 dc         1 CLA      0.079300
     81 HBC3       74.5265   56.8523   43.8922 dc         1 CLA      0.016300
     82 HBC2       72.8171   56.5169   44.1004 dc         1 CLA      0.016300
     83 HBC1       73.5491   56.4877   42.4485 dc         1 CLA      0.016300
     84 HBB2       81.3790   62.4370   45.2981 da         1 CLA      0.183000
     85 HBB1       81.7838   60.8671   44.3040 da         1 CLA      0.183000
     86 HBA2       80.8970   58.6916   32.7187 dc         1 CLA      0.029400
     87 HBA1       81.9280   58.5805   34.1561 dc         1 CLA      0.029400
     88 HAC2       73.0788   58.7693   44.2910 dc         1 CLA      0.029300
     89 HAC1       72.4469   58.6498   42.6235 dc         1 CLA      0.029300
     90 HAA2       78.9143   57.5617   34.0475 dc         1 CLA      0.028700
     91 HAA1       79.3394   59.1598   34.2469 dc         1 CLA      0.028700
     92 H203       88.4086   56.0686   49.5613 dc         1 CLA      0.065600
     93 H202       89.8515   57.0912   49.0639 dc         1 CLA      0.065600
     94 H201       88.5258   57.7686   49.8975 dc         1 CLA      0.065600
     95 H193       85.8817   57.9540   47.3850 dc         1 CLA      0.065600
     96 H192       86.0043   56.7587   48.6193 dc         1 CLA      0.065600
     97 H191       86.2473   58.3800   49.0394 dc         1 CLA      0.065600
     98 H172       87.6230   55.5402   47.1365 dc         1 CLA      0.027600
     99 H171       89.2531   55.9215   46.9841 dc         1 CLA      0.027600
    100 H162       88.3480   57.6965   45.4062 dc         1 CLA      0.002900
    101 H161       86.9372   56.5515   45.2672 dc         1 CLA      0.002900
    102 H152       88.2441   54.8233   44.3625 dc         1 CLA      0.029100
    103 H151       89.7565   55.7006   44.7687 dc         1 CLA      0.029100
    104 H143       90.7731   55.6407   42.6158 dc         1 CLA      0.063600
    105 H142       89.5730   54.5032   42.1588 dc         1 CLA      0.063600
    106 H141       89.9767   55.8105   41.0204 dc         1 CLA      0.063600
    107 H122       86.8530   57.2240   42.7164 dc         1 CLA      0.032500
    108 H121       86.9453   55.4115   42.4354 dc         1 CLA      0.032500
    109 H112       88.0429   57.5197   40.4932 dc         1 CLA      0.006600
    110 H111       86.2760   57.3375   40.5389 dc         1 CLA      0.006600
    111 H102       86.3741   54.9677   39.9041 dc         1 CLA      0.024100
    112 H101       88.2091   55.1196   39.7069 dc         1 CLA      0.024100
    113 HHD        73.1955   57.8553   40.6795 da         1 CLA      0.174300
    114 HHC        77.6618   61.5499   43.4634 da         1 CLA      0.136800
    115 HHB        81.7992   60.4668   38.8106 da         1 CLA      0.138300
    116 HBD        77.0090   56.7841   34.8800 dc         1 CLA      0.107700
    117 HAB        79.7569   63.1504   43.7548 da         1 CLA      0.155200
    118 H93        87.8419   57.8412   36.9058 dc         1 CLA      0.069500
    119 H92        88.5378   57.5129   38.3707 dc         1 CLA      0.069500
    120 H91        88.8417   56.4286   37.0828 dc         1 CLA      0.069500
    121 H8         85.9763   56.7421   38.3322 dc         1 CLA      0.029300
    122 H72        86.0741   54.1577   37.7499 dc         1 CLA      0.044400
    123 H71        87.5381   54.4806   36.9304 dc         1 CLA      0.044400
    124 H62        86.6428   56.0308   35.2911 dc         1 CLA      0.015600
    125 H61        85.1787   56.1593   36.0575 dc         1 CLA      0.015600
    126 H52        86.3363   53.3906   35.1405 dc         1 CLA      0.033200
    127 H51        85.4498   54.3584   34.0030 dc         1 CLA      0.033200
    128 H43        84.2331   51.4658   35.0591 dc         1 CLA      0.037000
    129 H42        84.7049   52.0013   36.7725 dc         1 CLA      0.037000
    130 H41        82.9243   52.0006   36.1860 dc         1 CLA      0.037000
    131 H3A        81.2674   59.6849   36.2425 dc         1 CLA      0.041100
    132 H2A        80.2190   56.8883   36.2136 dc         1 CLA      0.083100
    133 H2         83.1164   54.8164   36.4855 da         1 CLA      0.180900
    134 H18        88.4891   58.4698   47.6823 dc         1 CLA     -0.003900
    135 H13        89.0549   57.4430   42.9496 dc         1 CLA      0.019700
    136 H12        81.2552   54.2144   34.6454 dc         1 CLA      0.120400
    137 H11        82.4677   54.2002   33.3651 dc         1 CLA      0.120400
    138 C1         69.1657   61.9228   50.0348 Z1         2 LUT      0.509236
    139 C2         67.7604   61.6355   50.7024 Z2         2 LUT     -0.434695
    140 C3         66.9009   62.8243   51.0763 Z3         2 LUT      0.437453
    141 O3         66.8717   63.0765   52.4817 S1         2 LUT     -0.547129
    142 C4         67.3039   64.0362   50.3908 Z4         2 LUT     -0.468603
    143 C5         67.9623   63.8978   49.0197 Z5         2 LUT      0.279246
    144 C6         68.8542   62.8975   48.8295 Z6         2 LUT     -0.305473
    145 C7         69.3323   62.5131   47.5041 Z7         2 LUT      0.069402
    146 C8         70.5493   62.9618   46.9623 Z8         2 LUT     -0.191631
    147 C9         71.0365   62.5740   45.5604 Z9         2 LUT      0.196698
    148 C10        72.1380   63.2974   45.1287 Y1         2 LUT     -0.208611
    149 C11        72.8922   63.1045   43.8886 Y2         2 LUT      0.030784
    150 C12        74.0311   63.8394   43.6025 Y3         2 LUT     -0.220316
    151 C13        74.9148   63.6712   42.5118 Y4         2 LUT      0.215937
    152 C14        76.1307   64.3425   42.4357 Y5         2 LUT     -0.185793
    153 C15        77.3112   64.2767   41.5540 Y6         2 LUT     -0.057835
    154 C16        69.8676   60.5966   49.7177 Y7         2 LUT     -0.405615
    155 C17        70.0581   62.5792   51.1576 Y7         2 LUT     -0.405615
    156 C18        67.6278   65.0439   48.0896 Y9         2 LUT     -0.369639
    157 C19        70.4459   61.2966   44.9306 W1         2 LUT     -0.333362
    158 C20        74.3522   62.8784   41.3290 W2         2 LUT     -0.323439
    159 C21        89.2116   65.1032   35.9280 Z1         2 LUT      0.406104
    160 C22        89.6820   64.5046   34.5076 Z2         2 LUT     -0.404965
    161 C23        89.7025   65.5074   33.3235 Z3         2 LUT      0.391255
    162 O23        90.1108   64.7435   32.1838 S1         2 LUT     -0.528210
    163 C24        88.3301   66.2831   33.2374 W6         2 LUT     -0.258361
    164 C25        87.4684   66.3606   34.2395 Z5         2 LUT      0.133546
    165 C26        87.6699   65.5345   35.5405 W8         2 LUT     -0.147008
    166 C27        86.9912   66.1705   36.6632 Z7         2 LUT      0.023843
    167 C28        85.6815   65.9825   36.9678 Z8         2 LUT     -0.216987
    168 C29        84.9368   66.5209   38.0392 Z9         2 LUT      0.206524
    169 C30        83.8015   65.8436   38.5066 Y1         2 LUT     -0.215556
    170 C31        82.7692   66.2057   39.4396 Y2         2 LUT      0.025142
    171 C32        81.6384   65.5609   39.7789 Y3         2 LUT     -0.212209
    172 C33        80.5801   65.9332   40.6673 Y4         2 LUT      0.240937
    173 C34        79.5305   65.0468   40.8588 Y5         2 LUT     -0.218862
    174 C35        78.3205   65.1329   41.7029 Y6         2 LUT     -0.023547
    175 C36        90.1931   66.2036   36.3105 Y7         2 LUT     -0.393485
    176 C37        89.1684   63.9692   36.9640 Y7         2 LUT     -0.393485
    177 C38        86.1488   67.0908   34.0265 Y9         2 LUT     -0.387526
    178 C39        85.2825   67.8857   38.7595 W1         2 LUT     -0.322618
    179 C40        80.7823   67.1681   41.5050 W2         2 LUT     -0.358472
    180 H403       81.7275   67.1641   42.0876 R7         2 LUT      0.097720
    181 H402       80.9041   68.0300   40.8893 R7         2 LUT      0.097720
    182 H401       80.0593   67.3423   42.2484 R7         2 LUT      0.097720
    183 H393       84.4031   68.5031   38.5263 R4         2 LUT      0.082505
    184 H392       85.3180   67.7364   39.8703 R4         2 LUT      0.082505
    185 H391       86.1431   68.4213   38.2916 R4         2 LUT      0.082505
    186 H383       85.3144   66.4384   34.3973 R1         2 LUT      0.104030
    187 H382       86.1271   67.9664   34.6448 R1         2 LUT      0.104030
    188 H381       85.9318   67.3504   33.0182 R1         2 LUT      0.104030
    189 H373       90.1105   63.4519   37.0515 T4         2 LUT      0.089537
    190 H372       88.8869   64.3372   38.0066 T4         2 LUT      0.089537
    191 H371       88.4555   63.2346   36.7220 T4         2 LUT      0.089537
    192 H363       90.0509   67.0741   35.7396 T4         2 LUT      0.089537
    193 H362       89.9708   66.5712   37.3455 T4         2 LUT      0.089537
    194 H361       91.2370   66.0174   36.3239 T4         2 LUT      0.089537
    195 H222       90.7141   64.1956   34.5627 U2         2 LUT      0.127376
    196 H221       89.0769   63.6598   34.3354 U2         2 LUT      0.127376
    197 H203       73.2865   63.0236   41.2322 R7         2 LUT      0.087068
    198 H202       74.7564   63.1097   40.3788 R7         2 LUT      0.087068
    199 H201       74.4345   61.7565   41.5127 R7         2 LUT      0.087068
    200 H193       70.9366   61.0106   44.0440 R4         2 LUT      0.089716
    201 H192       70.2537   60.4245   45.5920 R4         2 LUT      0.089716
    202 H191       69.5060   61.6134   44.5488 R4         2 LUT      0.089716
    203 H183       66.7271   64.8253   47.5441 R1         2 LUT      0.094572
    204 H182       67.4619   65.9571   48.6279 R1         2 LUT      0.094572
    205 H181       68.3681   65.2458   47.3004 R1         2 LUT      0.094572
    206 H173       69.7282   63.5491   51.4378 T4         2 LUT      0.093752
    207 H172       70.1089   62.0465   52.0821 T4         2 LUT      0.093752
    208 H171       71.0950   62.7773   50.8114 T4         2 LUT      0.093752
    209 H163       69.9175   59.8700   50.5639 T4         2 LUT      0.093752
    210 H162       69.5843   59.9348   48.8272 T4         2 LUT      0.093752
    211 H161       70.9437   60.8551   49.5673 T4         2 LUT      0.093752
    212 HO3        66.0419   62.7110   52.8732 Q1         2 LUT      0.300121
    213 H8         71.1721   63.7635   47.5159 U7         2 LUT      0.080784
    214 H7         68.7115   61.9587   46.8853 U6         2 LUT      0.042190
    215 H42        66.3396   64.5805   50.1926 U5         2 LUT      0.145166
    216 H41        67.8052   64.7636   51.0431 U5         2 LUT      0.145166
    217 H35        78.1940   65.9597   42.4209 T3         2 LUT      0.077919
    218 H34        79.5635   64.1574   40.3486 T2         2 LUT      0.073626
    219 H32        81.4783   64.6449   39.2267 T1         2 LUT      0.092510
    220 H31        83.0371   67.1745   39.8301 U9         2 LUT      0.070048
    221 H30        83.5331   64.9013   37.9223 U8         2 LUT      0.085442
    222 H3         65.9094   62.6398   50.5358 U3         2 LUT     -0.031596
    223 H28        85.1468   65.2940   36.3510 U7         2 LUT      0.084728
    224 H27        87.5738   66.8214   37.2686 U6         2 LUT      0.087291
    225 H26        87.0946   64.6120   35.3724 Q6         2 LUT      0.075325
    226 H24        88.1694   66.9606   32.3310 Q5         2 LUT      0.094482
    227 H23        90.5488   66.2300   33.4833 U3         2 LUT     -0.024869
    228 H22        67.3124   61.1622   49.8404 U2         2 LUT      0.127376
    229 H21        67.9647   60.9772   51.5416 U2         2 LUT      0.127376
    230 H15        77.2783   63.4460   40.7924 T3         2 LUT      0.093200
    231 H14        76.1797   65.0632   43.2912 T2         2 LUT      0.068865
    232 H12        74.2619   64.6790   44.2847 T1         2 LUT      0.095507
    233 H11        72.6574   62.2582   43.1678 U9         2 LUT      0.068930
    234 H10        72.5851   64.0713   45.7584 U8         2 LUT      0.083911
    235 H1         90.1896   65.3680   31.4045 Q1         2 LUT      0.297311
@<TRIPOS>BOND
    1     6     1 1
    2     7     2 1
    3     8     3 1
    4     9     4 1
    5    11     4 1
    6    12     6 1
    7    13     9 1
    8    16     9 1
    9    25     5 1
   10    25    16 1
   11    26    10 1
   12    26    17 1
   13    27    18 1
   14    28    14 1
   15    28    19 1
   16    29    12 1
   17    30    13 1
   18    31    24 1
   19    32     1 1
   20    32    25 1
   21    33    21 1
   22    33    26 1
   23    34    22 1
   24    34    27 1
   25    35    23 1
   26    35    28 1
   27    36    12 1
   28    36    24 1
   29    37    13 1
   30    37    15 1
   31    38    31 1
   32    39    20 1
   33    39    32 1
   34    40     2 1
   35    40    33 1
   36    41     3 1
   37    41    34 1
   38    42     4 1
   39    42    35 1
   40    43    38 1
   41    44     5 1
   42    44    17 1
   43    44    39 1
   44    45    10 1
   45    45    18 1
   46    45    40 1
   47    46    19 1
   48    46    41 1
   49    47    14 1
   50    47    16 1
   51    47    42 1
   52    48    38 1
   53    49    48 1
   54    50    49 1
   55    51    50 1
   56    52    51 1
   57    53    51 1
   58    54    53 1
   59    55    54 1
   60    56    55 1
   61    57    56 1
   62    58    56 1
   63    59    58 1
   64    60    59 1
   65    61    60 1
   66    62    61 1
   67    63    61 1
   68    64    27 1
   69    64    46 1
   70    65     5 1
   71    65    10 1
   72    65    64 1
   73    65    14 1
   74    66    23 1
   75    67    23 1
   76    68    23 1
   77    69    22 1
   78    70    22 1
   79    71    22 1
   80    72    21 1
   81    73    21 1
   82    74    21 1
   83    75    20 1
   84    76    20 1
   85    77    20 1
   86    78    15 1
   87    79    15 1
   88    80    15 1
   89    81     8 1
   90    82     8 1
   91    83     8 1
   92    84     7 1
   93    85     7 1
   94    86     6 1
   95    87     6 1
   96    88     3 1
   97    89     3 1
   98    90     1 1
   99    91     1 1
  100    92    63 1
  101    93    63 1
  102    94    63 1
  103    95    62 1
  104    96    62 1
  105    97    62 1
  106    98    60 1
  107    99    60 1
  108   100    59 1
  109   101    59 1
  110   102    58 1
  111   103    58 1
  112   104    57 1
  113   105    57 1
  114   106    57 1
  115   107    55 1
  116   108    55 1
  117   109    54 1
  118   110    54 1
  119   111    53 1
  120   112    53 1
  121   113    19 1
  122   114    18 1
  123   115    17 1
  124   116     9 1
  125   117     2 1
  126   118    52 1
  127   119    52 1
  128   120    52 1
  129   121    51 1
  130   122    50 1
  131   123    50 1
  132   124    49 1
  133   125    49 1
  134   126    48 1
  135   127    48 1
  136   128    43 1
  137   129    43 1
  138   130    43 1
  139   131    39 1
  140   132    32 1
  141   133    31 1
  142   134    61 1
  143   135    56 1
  144   136    24 1
  145   137    24 1
  146   139   138 1
  147   140   139 1
  148   141   140 1
  149   142   140 1
  150   143   142 1
  151   144   138 1
  152   144   143 1
  153   145   144 1
  154   146   145 1
  155   147   146 1
  156   148   147 1
  157   149   148 1
  158   150   149 1
  159   151   150 1
  160   152   151 1
  161   153   152 1
  162   154   138 1
  163   155   138 1
  164   156   143 1
  165   157   147 1
  166   158   151 1
  167   160   159 1
  168   161   160 1
  169   162   161 1
  170   163   161 1
  171   164   163 1
  172   165   159 1
  173   165   164 1
  174   166   165 1
  175   167   166 1
  176   168   167 1
  177   169   168 1
  178   170   169 1
  179   171   170 1
  180   172   171 1
  181   173   172 1
  182   174   153 1
  183   174   173 1
  184   175   159 1
  185   176   159 1
  186   177   164 1
  187   178   168 1
  188   179   172 1
  189   180   179 1
  190   181   179 1
  191   182   179 1
  192   183   178 1
  193   184   178 1
  194   185   178 1
  195   186   177 1
  196   187   177 1
  197   188   177 1
  198   189   176 1
  199   190   176 1
  200   191   176 1
  201   192   175 1
  202   193   175 1
  203   194   175 1
  204   195   160 1
  205   196   160 1
  206   197   158 1
  207   198   158 1
  208   199   158 1
  209   200   157 1
  210   201   157 1
  211   202   157 1
  212   203   156 1
  213   204   156 1
  214   205   156 1
  215   206   155 1
  216   207   155 1
  217   208   155 1
  218   209   154 1
  219   210   154 1
  220   211   154 1
  221   212   141 1
  222   213   146 1
  223   214   145 1
  224   215   142 1
  225   216   142 1
  226   217   174 1
  227   218   173 1
  228   219   171 1
  229   220   170 1
  230   221   169 1
  231   222   140 1
  232   223   167 1
  233   224   166 1
  234   225   165 1
  235   226   163 1
  236   227   161 1
  237   228   139 1
  238   229   139 1
  239   230   153 1
  240   231   152 1
  241   232   150 1
  242   233   149 1
  243   234   148 1
  244   235   162 1
  245   65    153 1
  246   65    174 1
@<TRIPOS>SUBSTRUCTURE
      1 CLA               1 ****               0 ****  **** 
      2 LUT             138 ****               0 ****  **** 
