@<TRIPOS>MOLECULE
Cpptraj generated mol2 file.
  235   246     2     0     0
SMALL
USER_CHARGES


@<TRIPOS>ATOM
      1 CAA        79.5134   59.3509   33.5071 a2         1 CLA     -0.055900
      2 CAB        79.0771   62.7140   42.6703 c8         1 CLA     -0.148500
      3 CAC        72.7268   58.3137   42.2166 a2         1 CLA     -0.012600
      4 CAD        75.3986   56.5507   34.7450 ck         1 CLA      0.398800
      5 NA         78.3415   59.6352   36.9115 ns         1 CLA     -0.225500
      6 CBA        80.7467   59.2231   32.6275 a2         1 CLA     -0.135000
      7 CBB        80.1352   62.5867   43.5782 c0         1 CLA     -0.395200
      8 CBC        73.1129   56.8430   42.3662 a3         1 CLA     -0.037700
      9 CBD        76.7926   57.1594   34.3826 a1         1 CLA     -0.053900
     10 NB         78.1607   60.9141   39.6231 nm         1 CLA     -0.295700
     11 OBD        74.8697   55.7941   33.9205 o2         1 CLA     -0.494600
     12 CGA        81.2425   57.8311   32.3112 c4         1 CLA      0.827000
     13 CGD        77.8249   56.1505   33.9098 c4         1 CLA      0.655300
     14 ND         75.5865   58.6610   37.5192 nm         1 CLA     -0.291600
     15 CED        79.0625   54.2157   34.5538 a3         1 CLA      0.005400
     16 CHA        77.0943   58.0800   35.5330 cs         1 CLA     -0.123800
     17 CHB        80.0917   60.7048   38.1288 aa         1 CLA     -0.291900
     18 CHC        76.6951   61.2762   41.5647 aa         1 CLA     -0.090400
     19 CHD        73.7982   58.3178   39.1374 aa         1 CLA     -0.052000
     20 CMA        81.8251   58.7962   36.3767 a3         1 CLA     -0.230700
     21 CMB        81.4780   62.1799   40.6446 a3         1 CLA     -0.180800
     22 CMC        74.5894   60.3642   43.8024 a3         1 CLA     -0.134000
     23 CMD        72.6240   56.3860   36.7876 a3         1 CLA     -0.141100
     24 C1         82.4887   55.9806   33.2688 a2         1 CLA      0.023000
     25 C1A        78.2615   58.8357   35.7912 ac         1 CLA     -0.015100
     26 C1B        79.4496   61.1944   39.3129 cr         1 CLA      0.054700
     27 C1C        75.6392   60.3981   41.2918 cn         1 CLA     -0.005600
     28 C1D        74.3326   58.0993   37.8327 ap         1 CLA     -0.047300
     29 O1A        81.1394   57.2507   31.2589 o2         1 CLA     -0.610800
     30 O1D        78.5566   56.2817   32.9232 o2         1 CLA     -0.558200
     31 C2         82.5808   55.6428   34.7196 c8         1 CLA     -0.325100
     32 C2A        79.5750   58.7688   34.9948 a1         1 CLA      0.098600
     33 C2B        80.0565   61.8181   40.4940 cb         1 CLA      0.088500
     34 C2C        74.6685   59.9792   42.2444 cb         1 CLA      0.053700
     35 C2D        73.8340   57.2060   36.8068 cb         1 CLA      0.058900
     36 O2A        81.9266   57.2930   33.3924 o1         1 CLA     -0.437200
     37 O2D        77.8876   55.0579   34.7665 o1         1 CLA     -0.357600
     38 C3         83.4380   54.7746   35.2524 c5         1 CLA      0.031200
     39 C3A        80.5565   59.5416   35.8732 a1         1 CLA      0.166800
     40 C3B        79.0257   62.0844   41.3908 cb         1 CLA      0.035000
     41 C3C        73.8677   59.0483   41.6427 cb         1 CLA     -0.089900
     42 C3D        74.9213   57.1866   35.9740 cb         1 CLA     -0.035900
     43 C4         82.9238   53.4675   35.4787 a3         1 CLA     -0.053300
     44 C4A        79.6256   59.9830   37.0657 ac         1 CLA      0.001800
     45 C4B        77.8357   61.4606   40.8149 cn         1 CLA     -0.020900
     46 C4C        74.3242   59.0353   40.2157 cr         1 CLA     -0.044400
     47 C4D        75.8953   58.0896   36.3485 c6         1 CLA     -0.046000
     48 C5         84.8584   55.0904   35.6616 a2         1 CLA     -0.070400
     49 C6         85.2777   56.4670   36.3420 a2         1 CLA      0.043900
     50 C7         84.7749   56.3782   37.7988 a2         1 CLA     -0.150000
     51 C8         85.0293   57.6966   38.6113 a1         1 CLA      0.064200
     52 C9         86.4936   58.0867   38.5461 a3         1 CLA     -0.259300
     53 C10        84.5267   57.4409   40.0870 a2         1 CLA     -0.071900
     54 C11        84.3124   58.6647   41.0017 a2         1 CLA      0.014500
     55 C12        83.7509   58.1758   42.3984 a2         1 CLA     -0.112100
     56 C13        83.6686   59.1682   43.5929 a1         1 CLA      0.089200
     57 C14        84.9784   60.0522   43.6526 a3         1 CLA     -0.239100
     58 C15        83.3478   58.6102   44.9595 a2         1 CLA     -0.102200
     59 C16        82.0116   57.8732   45.2331 a2         1 CLA      0.023900
     60 C17        80.8308   58.6327   44.5408 a2         1 CLA     -0.105700
     61 C18        79.4256   58.1200   44.9428 a1         1 CLA      0.206800
     62 C19        78.3701   59.1115   44.3603 a3         1 CLA     -0.280100
     63 C20        79.1611   56.6987   44.3583 a3         1 CLA     -0.280100
     64 NC         75.4643   59.7457   40.0970 nx         1 CLA     -0.309200
     65 MG         76.7921   59.8406   38.4758 mg         1 CLA      0.895000
     66 HMD3       72.7084   55.8364   35.8185 dc         1 CLA      0.064300
     67 HMD2       72.5609   55.7050   37.5626 dc         1 CLA      0.064300
     68 HMD1       71.8133   57.0909   36.8211 dc         1 CLA      0.064300
     69 HMC3       75.1365   61.3035   43.8639 dc         1 CLA      0.052100
     70 HMC2       73.5927   60.3599   44.1514 dc         1 CLA      0.052100
     71 HMC1       75.1207   59.5931   44.4044 dc         1 CLA      0.052100
     72 HMB3       81.7469   62.7737   39.7814 dc         1 CLA      0.063600
     73 HMB2       81.5783   62.8673   41.5340 dc         1 CLA      0.063600
     74 HMB1       82.1505   61.3350   40.6226 dc         1 CLA      0.063600
     75 HMA3       82.5695   58.7063   35.5809 dc         1 CLA      0.058300
     76 HMA2       82.2031   59.4114   37.2054 dc         1 CLA      0.058300
     77 HMA1       81.4563   57.8531   36.7012 dc         1 CLA      0.058300
     78 HED3       79.0063   53.9137   33.4732 dc         1 CLA      0.079300
     79 HED2       79.9303   54.7842   34.8048 dc         1 CLA      0.079300
     80 HED1       79.0656   53.2779   35.1198 dc         1 CLA      0.079300
     81 HBC3       73.7933   56.4674   41.5597 dc         1 CLA      0.016300
     82 HBC2       73.6052   56.7452   43.2908 dc         1 CLA      0.016300
     83 HBC1       72.2550   56.1482   42.4019 dc         1 CLA      0.016300
     84 HBB2       80.1766   63.0978   44.5059 da         1 CLA      0.183000
     85 HBB1       80.9499   61.8633   43.3731 da         1 CLA      0.183000
     86 HBA2       80.7218   59.8824   31.6950 dc         1 CLA      0.029400
     87 HBA1       81.5448   59.8372   33.1707 dc         1 CLA      0.029400
     88 HAC2       72.4009   58.7780   43.1197 dc         1 CLA      0.029300
     89 HAC1       71.8606   58.3150   41.5403 dc         1 CLA      0.029300
     90 HAA2       78.7329   58.7211   33.1335 dc         1 CLA      0.028700
     91 HAA1       79.2662   60.3774   33.5951 dc         1 CLA      0.028700
     92 H203       79.4430   56.7044   43.2648 dc         1 CLA      0.065600
     93 H202       79.8012   56.0121   44.9037 dc         1 CLA      0.065600
     94 H201       78.1129   56.5330   44.5149 dc         1 CLA      0.065600
     95 H193       77.3621   58.9608   44.7495 dc         1 CLA      0.065600
     96 H192       78.6877   60.1308   44.5477 dc         1 CLA      0.065600
     97 H191       78.1369   58.8438   43.3205 dc         1 CLA      0.065600
     98 H172       80.9106   59.6790   44.6444 dc         1 CLA      0.027600
     99 H171       80.7837   58.4326   43.4787 dc         1 CLA      0.027600
    100 H162       81.9792   56.8577   44.9304 dc         1 CLA      0.002900
    101 H161       81.8300   57.8418   46.2496 dc         1 CLA      0.002900
    102 H152       84.2029   57.9010   44.9952 dc         1 CLA      0.029100
    103 H151       83.5325   59.2610   45.8051 dc         1 CLA      0.029100
    104 H143       85.8597   59.4140   43.8623 dc         1 CLA      0.063600
    105 H142       85.1501   60.4885   42.6344 dc         1 CLA      0.063600
    106 H141       84.8453   60.9451   44.3206 dc         1 CLA      0.063600
    107 H122       82.7035   57.8229   42.3422 dc         1 CLA      0.032500
    108 H121       84.3356   57.3338   42.5313 dc         1 CLA      0.032500
    109 H112       85.3195   58.8801   41.3452 dc         1 CLA      0.006600
    110 H111       83.6336   59.3929   40.6155 dc         1 CLA      0.006600
    111 H102       83.6401   56.8603   40.0845 dc         1 CLA      0.024100
    112 H101       85.2815   56.8209   40.5211 dc         1 CLA      0.024100
    113 HHD        72.8407   57.8891   39.4858 da         1 CLA      0.174300
    114 HHC        76.7311   61.5852   42.5823 da         1 CLA      0.136800
    115 HHB        81.1002   61.0796   38.0434 da         1 CLA      0.138300
    116 HBD        76.5754   57.8099   33.5651 dc         1 CLA      0.107700
    117 HAB        78.3033   63.4614   42.9406 da         1 CLA      0.155200
    118 H93        86.8488   58.5642   37.5924 dc         1 CLA      0.069500
    119 H92        86.7926   58.6772   39.4734 dc         1 CLA      0.069500
    120 H91        87.1199   57.2108   38.6795 dc         1 CLA      0.069500
    121 H8         84.4718   58.4885   38.0756 dc         1 CLA      0.029300
    122 H72        83.7367   56.2219   37.8753 dc         1 CLA      0.044400
    123 H71        85.1881   55.5301   38.3590 dc         1 CLA      0.044400
    124 H62        86.3233   56.5603   36.1904 dc         1 CLA      0.015600
    125 H61        84.7372   57.2850   35.8662 dc         1 CLA      0.015600
    126 H52        85.0464   54.2729   36.3608 dc         1 CLA      0.033200
    127 H51        85.4440   54.9445   34.7801 dc         1 CLA      0.033200
    128 H43        81.8160   53.4400   35.3750 dc         1 CLA      0.037000
    129 H42        83.4107   52.6952   34.8562 dc         1 CLA      0.037000
    130 H41        83.2011   53.1205   36.4398 dc         1 CLA      0.037000
    131 H3A        80.9095   60.4895   35.4763 dc         1 CLA      0.041100
    132 H2A        79.8445   57.6983   34.8986 dc         1 CLA      0.083100
    133 H2         81.9575   56.1647   35.4124 da         1 CLA      0.180900
    134 H18        79.3600   58.1393   46.0578 dc         1 CLA     -0.003900
    135 H13        82.8600   59.8116   43.3297 dc         1 CLA      0.019700
    136 H12        81.7097   55.3102   32.7710 dc         1 CLA      0.120400
    137 H11        83.5024   56.0186   32.8459 dc         1 CLA      0.120400
    138 C1         68.7226   61.6403   50.0857 Z1         2 LUT      0.509236
    139 C2         67.5449   61.4427   50.9733 Z2         2 LUT     -0.434695
    140 C3         66.6034   62.7174   51.3104 Z3         2 LUT      0.437453
    141 O3         66.4569   62.7542   52.7403 S1         2 LUT     -0.547129
    142 C4         67.1234   64.0132   50.7455 Z4         2 LUT     -0.468603
    143 C5         67.7184   63.8009   49.3264 Z5         2 LUT      0.279246
    144 C6         68.4909   62.7208   49.0339 Z6         2 LUT     -0.305473
    145 C7         68.8069   62.3999   47.5963 Z7         2 LUT      0.069402
    146 C8         69.8071   62.9875   46.8701 Z8         2 LUT     -0.191631
    147 C9         70.5528   62.6998   45.6139 Z9         2 LUT      0.196698
    148 C10        71.6192   63.4416   45.1517 Y1         2 LUT     -0.208611
    149 C11        72.2704   63.3519   43.8964 Y2         2 LUT      0.030784
    150 C12        73.3554   64.0653   43.4607 Y3         2 LUT     -0.220316
    151 C13        74.1522   63.9420   42.2175 Y4         2 LUT      0.215937
    152 C14        75.2961   64.6774   42.0793 Y5         2 LUT     -0.185793
    153 C15        76.4607   64.6156   41.1698 Y6         2 LUT     -0.057835
    154 C16        69.1932   60.2425   49.6359 Y7         2 LUT     -0.405615
    155 C17        69.8397   62.0191   51.0923 Y7         2 LUT     -0.405615
    156 C18        67.1368   64.7420   48.3234 Y9         2 LUT     -0.369639
    157 C19        70.1521   61.4808   44.7264 W1         2 LUT     -0.333362
    158 C20        73.4947   63.2214   41.0088 W2         2 LUT     -0.323439
    159 C21        87.4735   66.6815   34.9483 Z1         2 LUT      0.406104
    160 C22        88.0780   65.8755   33.7959 Z2         2 LUT     -0.404965
    161 C23        88.1029   66.4500   32.3626 Z3         2 LUT      0.391255
    162 O23        88.6292   65.4476   31.5304 S1         2 LUT     -0.528210
    163 C24        86.7615   67.0671   32.0814 W6         2 LUT     -0.258361
    164 C25        85.8470   67.4242   32.9861 Z5         2 LUT      0.133546
    165 C26        85.9994   66.9064   34.5014 W8         2 LUT     -0.147008
    166 C27        85.2693   67.6645   35.5084 Z7         2 LUT      0.023843
    167 C28        84.3908   67.0801   36.3098 Z8         2 LUT     -0.216987
    168 C29        83.7514   67.5239   37.5365 Z9         2 LUT      0.206524
    169 C30        82.6626   66.7705   38.0434 Y1         2 LUT     -0.215556
    170 C31        81.7808   67.0116   39.1135 Y2         2 LUT      0.025142
    171 C32        80.7185   66.1372   39.3293 Y3         2 LUT     -0.212209
    172 C33        79.7571   66.3086   40.4024 Y4         2 LUT      0.240937
    173 C34        78.6641   65.4557   40.3943 Y5         2 LUT     -0.218862
    174 C35        77.6164   65.3455   41.3612 Y6         2 LUT     -0.023547
    175 C36        88.3087   67.9455   35.3374 Y7         2 LUT     -0.393485
    176 C37        87.6055   65.7097   36.2045 Y7         2 LUT     -0.393485
    177 C38        84.6123   68.2877   32.6738 Y9         2 LUT     -0.387526
    178 C39        84.0710   68.8452   38.1346 W1         2 LUT     -0.322618
    179 C40        80.0666   67.3953   41.4220 W2         2 LUT     -0.358472
    180 H403       81.0877   67.3587   41.7364 R7         2 LUT      0.097720
    181 H402       79.7072   68.3881   41.2521 R7         2 LUT      0.097720
    182 H401       79.6026   67.0364   42.3341 R7         2 LUT      0.097720
    183 H393       84.9474   68.8330   38.8944 R4         2 LUT      0.082505
    184 H392       84.3358   69.5548   37.3596 R4         2 LUT      0.082505
    185 H391       83.3068   69.3881   38.7468 R4         2 LUT      0.082505
    186 H383       84.3233   68.8902   33.5428 R1         2 LUT      0.104030
    187 H382       84.8379   68.9430   31.8172 R1         2 LUT      0.104030
    188 H381       83.7886   67.6003   32.4561 R1         2 LUT      0.104030
    189 H373       87.2367   64.7156   36.0981 T4         2 LUT      0.089537
    190 H372       88.6474   65.4908   36.4401 T4         2 LUT      0.089537
    191 H371       87.0536   66.1279   37.0928 T4         2 LUT      0.089537
    192 H363       88.2602   68.6404   34.5554 T4         2 LUT      0.089537
    193 H362       87.8036   68.5020   36.1808 T4         2 LUT      0.089537
    194 H361       89.3296   67.8394   35.5798 T4         2 LUT      0.089537
    195 H222       89.0826   65.6031   33.9966 U2         2 LUT      0.127376
    196 H221       87.6817   64.9006   33.7834 U2         2 LUT      0.127376
    197 H203       72.5976   63.6987   40.7804 R7         2 LUT      0.087068
    198 H202       74.1481   63.4291   40.1560 R7         2 LUT      0.087068
    199 H201       73.4544   62.1407   41.1605 R7         2 LUT      0.087068
    200 H193       69.4730   60.7918   45.2967 R4         2 LUT      0.089716
    201 H192       69.5619   61.7687   43.8604 R4         2 LUT      0.089716
    202 H191       70.9349   60.7856   44.4667 R4         2 LUT      0.089716
    203 H183       66.1077   64.9969   48.5214 R1         2 LUT      0.094572
    204 H182       67.7533   65.6058   48.3389 R1         2 LUT      0.094572
    205 H181       67.1363   64.3199   47.2746 R1         2 LUT      0.094572
    206 H173       69.6458   63.0199   51.4639 T4         2 LUT      0.093752
    207 H172       70.0619   61.3510   51.8602 T4         2 LUT      0.093752
    208 H171       70.7990   62.0348   50.5360 T4         2 LUT      0.093752
    209 H163       68.5184   59.5795   49.0805 T4         2 LUT      0.093752
    210 H162       70.0780   60.2998   49.0232 T4         2 LUT      0.093752
    211 H161       69.3348   59.7259   50.5817 T4         2 LUT      0.093752
    212 HO3        67.2496   63.0136   53.2125 Q1         2 LUT      0.300121
    213 H8         70.0932   63.9549   47.3772 U7         2 LUT      0.080784
    214 H7         68.4283   61.3916   47.3737 U6         2 LUT      0.042190
    215 H42        66.2766   64.7735   50.7666 U5         2 LUT      0.145166
    216 H41        67.8576   64.5350   51.3655 U5         2 LUT      0.145166
    217 H35        77.6108   66.1158   42.1690 T3         2 LUT      0.077919
    218 H34        78.4447   65.0188   39.3890 T2         2 LUT      0.073626
    219 H32        80.6500   65.3345   38.6318 T1         2 LUT      0.092510
    220 H31        81.8545   67.9344   39.7822 U9         2 LUT      0.070048
    221 H30        82.4628   65.8048   37.6181 U8         2 LUT      0.085442
    222 H3         65.6448   62.5451   50.7515 U3         2 LUT     -0.031596
    223 H28        84.0441   66.1076   36.0236 U7         2 LUT      0.084728
    224 H27        85.6107   68.6701   35.6259 U6         2 LUT      0.087291
    225 H26        85.5033   65.9027   34.4257 Q6         2 LUT      0.075325
    226 H24        86.6380   67.3281   31.0055 Q5         2 LUT      0.094482
    227 H23        88.9475   67.1888   32.3512 U3         2 LUT     -0.024869
    228 H22        66.7699   60.8462   50.4009 U2         2 LUT      0.127376
    229 H21        67.8401   60.8956   51.8672 U2         2 LUT      0.127376
    230 H15        76.2212   64.1022   40.2049 T3         2 LUT      0.093200
    231 H14        75.5068   65.2560   42.9273 T2         2 LUT      0.068865
    232 H12        73.8214   64.6468   44.2502 T1         2 LUT      0.095507
    233 H11        71.8891   62.6705   43.1654 U9         2 LUT      0.068930
    234 H10        72.1277   64.1826   45.6990 U8         2 LUT      0.083911
    235 H1         88.6934   65.7427   30.6564 Q1         2 LUT      0.297311
@<TRIPOS>BOND
    1     6     1 1
    2     7     2 1
    3     8     3 1
    4     9     4 1
    5    11     4 1
    6    12     6 1
    7    13     9 1
    8    16     9 1
    9    25     5 1
   10    25    16 1
   11    26    10 1
   12    26    17 1
   13    27    18 1
   14    28    14 1
   15    28    19 1
   16    29    12 1
   17    30    13 1
   18    31    24 1
   19    32     1 1
   20    32    25 1
   21    33    21 1
   22    33    26 1
   23    34    22 1
   24    34    27 1
   25    35    23 1
   26    35    28 1
   27    36    12 1
   28    36    24 1
   29    37    13 1
   30    37    15 1
   31    38    31 1
   32    39    20 1
   33    39    32 1
   34    40     2 1
   35    40    33 1
   36    41     3 1
   37    41    34 1
   38    42     4 1
   39    42    35 1
   40    43    38 1
   41    44     5 1
   42    44    17 1
   43    44    39 1
   44    45    10 1
   45    45    18 1
   46    45    40 1
   47    46    19 1
   48    46    41 1
   49    47    14 1
   50    47    16 1
   51    47    42 1
   52    48    38 1
   53    49    48 1
   54    50    49 1
   55    51    50 1
   56    52    51 1
   57    53    51 1
   58    54    53 1
   59    55    54 1
   60    56    55 1
   61    57    56 1
   62    58    56 1
   63    59    58 1
   64    60    59 1
   65    61    60 1
   66    62    61 1
   67    63    61 1
   68    64    27 1
   69    64    46 1
   70    65     5 1
   71    65    10 1
   72    65    64 1
   73    65    14 1
   74    66    23 1
   75    67    23 1
   76    68    23 1
   77    69    22 1
   78    70    22 1
   79    71    22 1
   80    72    21 1
   81    73    21 1
   82    74    21 1
   83    75    20 1
   84    76    20 1
   85    77    20 1
   86    78    15 1
   87    79    15 1
   88    80    15 1
   89    81     8 1
   90    82     8 1
   91    83     8 1
   92    84     7 1
   93    85     7 1
   94    86     6 1
   95    87     6 1
   96    88     3 1
   97    89     3 1
   98    90     1 1
   99    91     1 1
  100    92    63 1
  101    93    63 1
  102    94    63 1
  103    95    62 1
  104    96    62 1
  105    97    62 1
  106    98    60 1
  107    99    60 1
  108   100    59 1
  109   101    59 1
  110   102    58 1
  111   103    58 1
  112   104    57 1
  113   105    57 1
  114   106    57 1
  115   107    55 1
  116   108    55 1
  117   109    54 1
  118   110    54 1
  119   111    53 1
  120   112    53 1
  121   113    19 1
  122   114    18 1
  123   115    17 1
  124   116     9 1
  125   117     2 1
  126   118    52 1
  127   119    52 1
  128   120    52 1
  129   121    51 1
  130   122    50 1
  131   123    50 1
  132   124    49 1
  133   125    49 1
  134   126    48 1
  135   127    48 1
  136   128    43 1
  137   129    43 1
  138   130    43 1
  139   131    39 1
  140   132    32 1
  141   133    31 1
  142   134    61 1
  143   135    56 1
  144   136    24 1
  145   137    24 1
  146   139   138 1
  147   140   139 1
  148   141   140 1
  149   142   140 1
  150   143   142 1
  151   144   138 1
  152   144   143 1
  153   145   144 1
  154   146   145 1
  155   147   146 1
  156   148   147 1
  157   149   148 1
  158   150   149 1
  159   151   150 1
  160   152   151 1
  161   153   152 1
  162   154   138 1
  163   155   138 1
  164   156   143 1
  165   157   147 1
  166   158   151 1
  167   160   159 1
  168   161   160 1
  169   162   161 1
  170   163   161 1
  171   164   163 1
  172   165   159 1
  173   165   164 1
  174   166   165 1
  175   167   166 1
  176   168   167 1
  177   169   168 1
  178   170   169 1
  179   171   170 1
  180   172   171 1
  181   173   172 1
  182   174   153 1
  183   174   173 1
  184   175   159 1
  185   176   159 1
  186   177   164 1
  187   178   168 1
  188   179   172 1
  189   180   179 1
  190   181   179 1
  191   182   179 1
  192   183   178 1
  193   184   178 1
  194   185   178 1
  195   186   177 1
  196   187   177 1
  197   188   177 1
  198   189   176 1
  199   190   176 1
  200   191   176 1
  201   192   175 1
  202   193   175 1
  203   194   175 1
  204   195   160 1
  205   196   160 1
  206   197   158 1
  207   198   158 1
  208   199   158 1
  209   200   157 1
  210   201   157 1
  211   202   157 1
  212   203   156 1
  213   204   156 1
  214   205   156 1
  215   206   155 1
  216   207   155 1
  217   208   155 1
  218   209   154 1
  219   210   154 1
  220   211   154 1
  221   212   141 1
  222   213   146 1
  223   214   145 1
  224   215   142 1
  225   216   142 1
  226   217   174 1
  227   218   173 1
  228   219   171 1
  229   220   170 1
  230   221   169 1
  231   222   140 1
  232   223   167 1
  233   224   166 1
  234   225   165 1
  235   226   163 1
  236   227   161 1
  237   228   139 1
  238   229   139 1
  239   230   153 1
  240   231   152 1
  241   232   150 1
  242   233   149 1
  243   234   148 1
  244   235   162 1
  245   65    153 1
  246   65    174 1
@<TRIPOS>SUBSTRUCTURE
      1 CLA               1 ****               0 ****  **** 
      2 LUT             138 ****               0 ****  **** 
