@<TRIPOS>MOLECULE
Cpptraj generated mol2 file.
  235   246     2     0     0
SMALL
USER_CHARGES


@<TRIPOS>ATOM
      1 CAA        80.4007   58.7983   34.3967 a2         1 CLA     -0.055900
      2 CAB        79.6823   62.1747   43.4805 c8         1 CLA     -0.148500
      3 CAC        72.9358   58.0019   42.4416 a2         1 CLA     -0.012600
      4 CAD        75.8257   56.0730   35.1590 ck         1 CLA      0.398800
      5 NA         79.0027   58.9753   37.7412 ns         1 CLA     -0.225500
      6 CBA        81.7214   58.5655   33.7100 a2         1 CLA     -0.135000
      7 CBB        80.7513   62.1656   44.2877 c0         1 CLA     -0.395200
      8 CBC        73.2837   56.6150   42.9573 a3         1 CLA     -0.037700
      9 CBD        77.2872   56.7670   34.8471 a1         1 CLA     -0.053900
     10 NB         78.7879   60.4052   40.3427 nm         1 CLA     -0.295700
     11 OBD        75.2479   55.3029   34.3621 o2         1 CLA     -0.494600
     12 CGA        82.0437   57.1412   33.2686 c4         1 CLA      0.827000
     13 CGD        78.2846   55.6888   34.6117 c4         1 CLA      0.655300
     14 ND         76.2082   58.1652   38.0174 nm         1 CLA     -0.291600
     15 CED        79.4246   53.8198   35.4344 a3         1 CLA      0.005400
     16 CHA        77.7252   57.6362   36.1434 cs         1 CLA     -0.123800
     17 CHB        80.8091   60.2063   38.9351 aa         1 CLA     -0.291900
     18 CHC        77.3961   60.6119   42.2972 aa         1 CLA     -0.090400
     19 CHD        74.3379   57.9635   39.6802 aa         1 CLA     -0.052000
     20 CMA        82.4438   58.0732   37.3588 a3         1 CLA     -0.230700
     21 CMB        81.9011   62.1836   41.0785 a3         1 CLA     -0.180800
     22 CMC        74.8990   59.8369   44.1296 a3         1 CLA     -0.134000
     23 CMD        73.3255   55.6875   37.6018 a3         1 CLA     -0.141100
     24 C1         83.3006   55.1569   33.9649 a2         1 CLA      0.023000
     25 C1A        78.9228   58.3326   36.5095 ac         1 CLA     -0.015100
     26 C1B        80.1218   60.6499   40.0660 cr         1 CLA      0.054700
     27 C1C        76.2242   59.9282   41.9163 cn         1 CLA     -0.005600
     28 C1D        74.9245   57.6560   38.4002 ap         1 CLA     -0.047300
     29 O1A        81.6617   56.5492   32.2673 o2         1 CLA     -0.610800
     30 O1D        79.0824   55.7985   33.6806 o2         1 CLA     -0.558200
     31 C2         83.4597   54.5786   35.3462 c8         1 CLA     -0.325100
     32 C2A        80.3315   58.2403   35.8604 a1         1 CLA      0.098600
     33 C2B        80.6259   61.5234   41.1146 cb         1 CLA      0.088500
     34 C2C        75.1080   59.4961   42.7312 cb         1 CLA      0.053700
     35 C2D        74.4700   56.6551   37.3963 cb         1 CLA      0.058900
     36 O2A        82.8276   56.5167   34.2291 o1         1 CLA     -0.437200
     37 O2D        78.3879   54.8321   35.6130 o1         1 CLA     -0.357600
     38 C3         84.6012   54.1063   35.8592 c5         1 CLA      0.031200
     39 C3A        81.2568   58.9202   36.8608 a1         1 CLA      0.166800
     40 C3B        79.6906   61.5470   42.1348 cb         1 CLA      0.035000
     41 C3C        74.1977   58.8194   41.9271 cb         1 CLA     -0.089900
     42 C3D        75.4368   56.6612   36.4531 cb         1 CLA     -0.035900
     43 C4         84.8960   52.6099   35.9173 a3         1 CLA     -0.053300
     44 C4A        80.3468   59.3492   37.9446 ac         1 CLA      0.001800
     45 C4B        78.5538   60.8220   41.5787 cn         1 CLA     -0.020900
     46 C4C        74.8500   58.7915   40.7054 cr         1 CLA     -0.044400
     47 C4D        76.5022   57.5971   36.8753 c6         1 CLA     -0.046000
     48 C5         85.6456   54.9969   36.3874 a2         1 CLA     -0.070400
     49 C6         85.5338   55.5085   37.8364 a2         1 CLA      0.043900
     50 C7         86.7469   56.2665   38.2896 a2         1 CLA     -0.150000
     51 C8         86.7550   57.0161   39.6121 a1         1 CLA      0.064200
     52 C9         85.9144   58.3324   39.4772 a3         1 CLA     -0.259300
     53 C10        88.1947   57.2934   40.1067 a2         1 CLA     -0.071900
     54 C11        88.3506   57.6988   41.5672 a2         1 CLA      0.014500
     55 C12        88.4901   56.5178   42.5602 a2         1 CLA     -0.112100
     56 C13        88.5063   56.8992   44.0376 a1         1 CLA      0.089200
     57 C14        89.0706   55.5817   44.7421 a3         1 CLA     -0.239100
     58 C15        87.1533   57.3584   44.6563 a2         1 CLA     -0.102200
     59 C16        87.2277   57.7414   46.1403 a2         1 CLA      0.023900
     60 C17        86.0284   58.4564   46.7550 a2         1 CLA     -0.105700
     61 C18        86.0669   58.3649   48.3339 a1         1 CLA      0.206800
     62 C19        85.1416   59.4652   48.9062 a3         1 CLA     -0.280100
     63 C20        85.6437   57.0167   48.8360 a3         1 CLA     -0.280100
     64 NC         76.0193   59.4630   40.6922 nx         1 CLA     -0.309200
     65 MG         77.4368   59.3385   39.1416 mg         1 CLA      0.895000
     66 HMD3       72.4025   56.1321   37.2826 dc         1 CLA      0.064300
     67 HMD2       73.4151   54.8835   36.8570 dc         1 CLA      0.064300
     68 HMD1       73.3129   55.1371   38.5253 dc         1 CLA      0.064300
     69 HMC3       73.8622   60.1415   44.2935 dc         1 CLA      0.052100
     70 HMC2       75.0051   58.9336   44.7453 dc         1 CLA      0.052100
     71 HMC1       75.5452   60.6853   44.4028 dc         1 CLA      0.052100
     72 HMB3       82.7386   61.4851   41.0065 dc         1 CLA      0.063600
     73 HMB2       81.8246   62.8987   40.2685 dc         1 CLA      0.063600
     74 HMB1       81.9279   62.7850   41.9958 dc         1 CLA      0.063600
     75 HMA3       83.0681   57.7530   36.6102 dc         1 CLA      0.058300
     76 HMA2       83.0332   58.6264   38.1191 dc         1 CLA      0.058300
     77 HMA1       82.0589   57.2450   37.9173 dc         1 CLA      0.058300
     78 HED3       78.8877   53.0055   35.9228 dc         1 CLA      0.079300
     79 HED2       79.7139   53.6088   34.3982 dc         1 CLA      0.079300
     80 HED1       80.2007   54.1776   36.0557 dc         1 CLA      0.079300
     81 HBC3       74.0996   56.1904   42.3823 dc         1 CLA      0.016300
     82 HBC2       73.7312   56.6467   43.9634 dc         1 CLA      0.016300
     83 HBC1       72.4453   55.9105   42.9615 dc         1 CLA      0.016300
     84 HBB2       80.7006   62.5711   45.3185 da         1 CLA      0.183000
     85 HBB1       81.6342   61.6587   43.9349 da         1 CLA      0.183000
     86 HBA2       81.6167   59.2223   32.8966 dc         1 CLA      0.029400
     87 HBA1       82.6021   58.8960   34.2951 dc         1 CLA      0.029400
     88 HAC2       72.4422   58.5040   43.2589 dc         1 CLA      0.029300
     89 HAC1       72.2196   57.9203   41.6044 dc         1 CLA      0.029300
     90 HAA2       79.6476   58.3319   33.7494 dc         1 CLA      0.028700
     91 HAA1       80.2751   59.8738   34.5318 dc         1 CLA      0.028700
     92 H203       85.6147   56.8099   49.8954 dc         1 CLA      0.065600
     93 H202       84.6436   56.8428   48.4506 dc         1 CLA      0.065600
     94 H201       86.2677   56.2182   48.4129 dc         1 CLA      0.065600
     95 H193       85.4065   60.4831   48.4938 dc         1 CLA      0.065600
     96 H192       84.0815   59.3602   48.6524 dc         1 CLA      0.065600
     97 H191       85.2917   59.5149   49.9565 dc         1 CLA      0.065600
     98 H172       86.2671   59.3799   46.3784 dc         1 CLA      0.027600
     99 H171       85.1024   58.0983   46.3115 dc         1 CLA      0.027600
    100 H162       87.4518   56.8347   46.6655 dc         1 CLA      0.002900
    101 H161       88.0760   58.4374   46.2701 dc         1 CLA      0.002900
    102 H152       86.8734   58.2184   43.9927 dc         1 CLA      0.029100
    103 H151       86.3261   56.6259   44.5713 dc         1 CLA      0.029100
    104 H143       90.0288   55.2425   44.3491 dc         1 CLA      0.063600
    105 H142       89.2685   55.8119   45.7767 dc         1 CLA      0.063600
    106 H141       88.3664   54.7690   44.6790 dc         1 CLA      0.063600
    107 H122       87.6446   55.8354   42.4270 dc         1 CLA      0.032500
    108 H121       89.3232   55.9140   42.2700 dc         1 CLA      0.032500
    109 H112       89.2569   58.3385   41.6389 dc         1 CLA      0.006600
    110 H111       87.4851   58.2474   41.8981 dc         1 CLA      0.006600
    111 H102       88.8281   56.4341   39.9778 dc         1 CLA      0.024100
    112 H101       88.6813   58.1036   39.4897 dc         1 CLA      0.024100
    113 HHD        73.3160   57.4866   39.8936 da         1 CLA      0.174300
    114 HHC        77.4414   61.0283   43.3284 da         1 CLA      0.136800
    115 HHB        81.8763   60.4163   38.9224 da         1 CLA      0.138300
    116 HBD        77.2070   57.3562   34.0032 dc         1 CLA      0.107700
    117 HAB        78.7647   62.6517   43.7362 da         1 CLA      0.155200
    118 H93        85.0883   58.0602   38.8279 dc         1 CLA      0.069500
    119 H92        85.5076   58.8051   40.3375 dc         1 CLA      0.069500
    120 H91        86.5092   59.1204   39.0034 dc         1 CLA      0.069500
    121 H8         86.1797   56.4354   40.3454 dc         1 CLA      0.029300
    122 H72        87.4779   55.4599   38.4827 dc         1 CLA      0.044400
    123 H71        87.2743   56.8663   37.5333 dc         1 CLA      0.044400
    124 H62        84.6505   56.1790   37.8520 dc         1 CLA      0.015600
    125 H61        85.3195   54.5619   38.3919 dc         1 CLA      0.015600
    126 H52        86.6708   54.5495   36.1778 dc         1 CLA      0.033200
    127 H51        85.6657   55.8943   35.7883 dc         1 CLA      0.033200
    128 H43        85.8728   52.3708   36.3060 dc         1 CLA      0.037000
    129 H42        84.1612   52.0195   36.5119 dc         1 CLA      0.037000
    130 H41        84.7789   52.3570   34.8831 dc         1 CLA      0.037000
    131 H3A        81.6599   59.7648   36.3254 dc         1 CLA      0.041100
    132 H2A        80.6898   57.1979   35.7966 dc         1 CLA      0.083100
    133 H2         82.6805   54.8450   36.0608 da         1 CLA      0.180900
    134 H18        87.1014   58.6025   48.6468 dc         1 CLA     -0.003900
    135 H13        89.3286   57.5944   44.1801 dc         1 CLA      0.019700
    136 H12        82.5367   54.5445   33.5581 dc         1 CLA      0.120400
    137 H11        84.1369   55.1514   33.2940 dc         1 CLA      0.120400
    138 C1         68.5774   61.9966   50.3269 Z1         2 LUT      0.509236
    139 C2         68.4641   63.1123   51.2572 Z2         2 LUT     -0.434695
    140 C3         67.0888   63.7212   51.3786 Z3         2 LUT      0.437453
    141 O3         67.2599   64.9152   52.1827 S1         2 LUT     -0.547129
    142 C4         66.7115   64.1874   49.9495 Z4         2 LUT     -0.468603
    143 C5         67.3076   63.4917   48.7477 Z5         2 LUT      0.279246
    144 C6         68.1180   62.4120   48.8894 Z6         2 LUT     -0.305473
    145 C7         68.9132   62.0081   47.7785 Z7         2 LUT      0.069402
    146 C8         69.9579   62.6317   47.1555 Z8         2 LUT     -0.191631
    147 C9         70.6998   62.1206   45.9655 Z9         2 LUT      0.196698
    148 C10        71.7893   62.8432   45.5898 Y1         2 LUT     -0.208611
    149 C11        72.6786   62.7260   44.4744 Y2         2 LUT      0.030784
    150 C12        73.7601   63.4768   44.1467 Y3         2 LUT     -0.220316
    151 C13        74.6557   63.3445   43.0506 Y4         2 LUT      0.215937
    152 C14        75.6888   64.2491   42.9782 Y5         2 LUT     -0.185793
    153 C15        76.7254   64.1391   42.0539 Y6         2 LUT     -0.057835
    154 C16        67.7113   60.8336   50.8770 Y7         2 LUT     -0.405615
    155 C17        70.0485   61.3572   50.4773 Y7         2 LUT     -0.405615
    156 C18        67.1096   64.3152   47.4866 Y9         2 LUT     -0.369639
    157 C19        70.2912   60.7594   45.3382 W1         2 LUT     -0.333362
    158 C20        74.0288   62.9162   41.7462 W2         2 LUT     -0.323439
    159 C21        88.5409   65.2289   35.8673 Z1         2 LUT      0.406104
    160 C22        89.0757   64.7526   34.4863 Z2         2 LUT     -0.404965
    161 C23        88.9628   65.6943   33.3128 Z3         2 LUT      0.391255
    162 O23        89.2873   64.8991   32.1884 S1         2 LUT     -0.528210
    163 C24        87.6107   66.3280   33.2682 W6         2 LUT     -0.258361
    164 C25        86.7577   66.3853   34.2914 Z5         2 LUT      0.133546
    165 C26        87.0329   65.6283   35.6499 W8         2 LUT     -0.147008
    166 C27        86.4270   66.3337   36.8433 Z7         2 LUT      0.023843
    167 C28        85.1740   65.9870   37.2223 Z8         2 LUT     -0.216987
    168 C29        84.3359   66.4598   38.2945 Z9         2 LUT      0.206524
    169 C30        83.1716   65.7879   38.5232 Y1         2 LUT     -0.215556
    170 C31        82.2586   66.0183   39.6633 Y2         2 LUT      0.025142
    171 C32        81.0523   65.4919   39.9867 Y3         2 LUT     -0.212209
    172 C33        80.1463   65.5706   41.1147 Y4         2 LUT      0.240937
    173 C34        78.9235   64.9606   41.0494 Y5         2 LUT     -0.218862
    174 C35        77.8030   65.0016   41.8806 Y6         2 LUT     -0.023547
    175 C36        89.4523   66.4685   36.1831 Y7         2 LUT     -0.393485
    176 C37        88.8005   64.0900   36.8600 Y7         2 LUT     -0.393485
    177 C38        85.3366   66.7324   33.9707 Y9         2 LUT     -0.387526
    178 C39        84.8972   67.5670   39.1441 W1         2 LUT     -0.322618
    179 C40        80.7136   66.1453   42.4068 W2         2 LUT     -0.358472
    180 H403       80.0804   66.6357   43.1190 R7         2 LUT      0.097720
    181 H402       81.1784   65.3723   42.9803 R7         2 LUT      0.097720
    182 H401       81.4471   66.8376   42.2025 R7         2 LUT      0.097720
    183 H393       85.6271   68.2506   38.7171 R4         2 LUT      0.082505
    184 H392       84.1623   68.0932   39.7260 R4         2 LUT      0.082505
    185 H391       85.4159   67.0850   39.9951 R4         2 LUT      0.082505
    186 H383       84.5962   66.2052   34.5985 R1         2 LUT      0.104030
    187 H382       85.1022   67.7765   34.1918 R1         2 LUT      0.104030
    188 H381       85.0358   66.5922   32.9286 R1         2 LUT      0.104030
    189 H373       89.8585   64.0639   36.9150 T4         2 LUT      0.089537
    190 H372       88.4667   64.3368   37.9057 T4         2 LUT      0.089537
    191 H371       88.3803   63.1121   36.5667 T4         2 LUT      0.089537
    192 H363       90.5414   66.2473   36.0264 T4         2 LUT      0.089537
    193 H362       89.1750   67.3082   35.5646 T4         2 LUT      0.089537
    194 H361       89.3900   66.9002   37.2340 T4         2 LUT      0.089537
    195 H222       90.1645   64.5385   34.6171 U2         2 LUT      0.127376
    196 H221       88.5585   63.8295   34.3424 U2         2 LUT      0.127376
    197 H203       74.2304   61.9352   41.4999 R7         2 LUT      0.087068
    198 H202       72.9337   63.0606   41.6693 R7         2 LUT      0.087068
    199 H201       74.4352   63.4593   40.8733 R7         2 LUT      0.087068
    200 H193       70.1700   59.9896   46.0652 R4         2 LUT      0.089716
    201 H192       69.3527   60.7894   44.8293 R4         2 LUT      0.089716
    202 H191       70.9806   60.3907   44.6689 R4         2 LUT      0.089716
    203 H183       67.6357   65.2794   47.4392 R1         2 LUT      0.094572
    204 H182       67.4495   63.7064   46.6545 R1         2 LUT      0.094572
    205 H181       66.0504   64.4157   47.3191 R1         2 LUT      0.094572
    206 H173       70.7915   62.1065   50.1785 T4         2 LUT      0.093752
    207 H172       70.3274   61.0881   51.4676 T4         2 LUT      0.093752
    208 H171       70.1742   60.4017   49.9176 T4         2 LUT      0.093752
    209 H163       67.9340   59.8524   50.3893 T4         2 LUT      0.093752
    210 H162       67.8240   60.5753   51.9595 T4         2 LUT      0.093752
    211 H161       66.6793   61.0490   50.6056 T4         2 LUT      0.093752
    212 HO3        66.6455   64.9319   52.9054 Q1         2 LUT      0.300121
    213 H8         70.1938   63.5891   47.6919 U7         2 LUT      0.080784
    214 H7         68.5747   61.0730   47.3784 U6         2 LUT      0.042190
    215 H42        65.5695   64.1811   49.9622 U5         2 LUT      0.145166
    216 H41        66.7529   65.2732   49.9324 U5         2 LUT      0.145166
    217 H35        77.7263   65.7351   42.7283 T3         2 LUT      0.077919
    218 H34        78.6218   64.4204   40.1612 T2         2 LUT      0.073626
    219 H32        80.6741   64.9182   39.1174 T1         2 LUT      0.092510
    220 H31        82.6706   66.7080   40.3866 U9         2 LUT      0.070048
    221 H30        82.8355   64.9368   37.9556 U8         2 LUT      0.085442
    222 H3         66.3526   62.9249   51.6270 U3         2 LUT     -0.031596
    223 H28        84.6052   65.1886   36.6310 U7         2 LUT      0.084728
    224 H27        87.1067   66.9468   37.4448 U6         2 LUT      0.087291
    225 H26        86.4763   64.6669   35.4265 Q6         2 LUT      0.075325
    226 H24        87.2912   66.7349   32.2970 Q5         2 LUT      0.094482
    227 H23        89.7171   66.4629   33.3729 U3         2 LUT     -0.024869
    228 H22        68.8788   62.8388   52.2571 U2         2 LUT      0.127376
    229 H21        69.0943   63.9744   50.8677 U2         2 LUT      0.127376
    230 H15        76.7536   63.3467   41.3269 T3         2 LUT      0.093200
    231 H14        75.7465   65.0550   43.6583 T2         2 LUT      0.068865
    232 H12        73.9935   64.2897   44.7147 T1         2 LUT      0.095507
    233 H11        72.4512   62.0143   43.7126 U9         2 LUT      0.068930
    234 H10        71.9478   63.8779   45.9335 U8         2 LUT      0.083911
    235 H1         89.3195   65.5151   31.4211 Q1         2 LUT      0.297311
@<TRIPOS>BOND
    1     6     1 1
    2     7     2 1
    3     8     3 1
    4     9     4 1
    5    11     4 1
    6    12     6 1
    7    13     9 1
    8    16     9 1
    9    25     5 1
   10    25    16 1
   11    26    10 1
   12    26    17 1
   13    27    18 1
   14    28    14 1
   15    28    19 1
   16    29    12 1
   17    30    13 1
   18    31    24 1
   19    32     1 1
   20    32    25 1
   21    33    21 1
   22    33    26 1
   23    34    22 1
   24    34    27 1
   25    35    23 1
   26    35    28 1
   27    36    12 1
   28    36    24 1
   29    37    13 1
   30    37    15 1
   31    38    31 1
   32    39    20 1
   33    39    32 1
   34    40     2 1
   35    40    33 1
   36    41     3 1
   37    41    34 1
   38    42     4 1
   39    42    35 1
   40    43    38 1
   41    44     5 1
   42    44    17 1
   43    44    39 1
   44    45    10 1
   45    45    18 1
   46    45    40 1
   47    46    19 1
   48    46    41 1
   49    47    14 1
   50    47    16 1
   51    47    42 1
   52    48    38 1
   53    49    48 1
   54    50    49 1
   55    51    50 1
   56    52    51 1
   57    53    51 1
   58    54    53 1
   59    55    54 1
   60    56    55 1
   61    57    56 1
   62    58    56 1
   63    59    58 1
   64    60    59 1
   65    61    60 1
   66    62    61 1
   67    63    61 1
   68    64    27 1
   69    64    46 1
   70    65     5 1
   71    65    10 1
   72    65    64 1
   73    65    14 1
   74    66    23 1
   75    67    23 1
   76    68    23 1
   77    69    22 1
   78    70    22 1
   79    71    22 1
   80    72    21 1
   81    73    21 1
   82    74    21 1
   83    75    20 1
   84    76    20 1
   85    77    20 1
   86    78    15 1
   87    79    15 1
   88    80    15 1
   89    81     8 1
   90    82     8 1
   91    83     8 1
   92    84     7 1
   93    85     7 1
   94    86     6 1
   95    87     6 1
   96    88     3 1
   97    89     3 1
   98    90     1 1
   99    91     1 1
  100    92    63 1
  101    93    63 1
  102    94    63 1
  103    95    62 1
  104    96    62 1
  105    97    62 1
  106    98    60 1
  107    99    60 1
  108   100    59 1
  109   101    59 1
  110   102    58 1
  111   103    58 1
  112   104    57 1
  113   105    57 1
  114   106    57 1
  115   107    55 1
  116   108    55 1
  117   109    54 1
  118   110    54 1
  119   111    53 1
  120   112    53 1
  121   113    19 1
  122   114    18 1
  123   115    17 1
  124   116     9 1
  125   117     2 1
  126   118    52 1
  127   119    52 1
  128   120    52 1
  129   121    51 1
  130   122    50 1
  131   123    50 1
  132   124    49 1
  133   125    49 1
  134   126    48 1
  135   127    48 1
  136   128    43 1
  137   129    43 1
  138   130    43 1
  139   131    39 1
  140   132    32 1
  141   133    31 1
  142   134    61 1
  143   135    56 1
  144   136    24 1
  145   137    24 1
  146   139   138 1
  147   140   139 1
  148   141   140 1
  149   142   140 1
  150   143   142 1
  151   144   138 1
  152   144   143 1
  153   145   144 1
  154   146   145 1
  155   147   146 1
  156   148   147 1
  157   149   148 1
  158   150   149 1
  159   151   150 1
  160   152   151 1
  161   153   152 1
  162   154   138 1
  163   155   138 1
  164   156   143 1
  165   157   147 1
  166   158   151 1
  167   160   159 1
  168   161   160 1
  169   162   161 1
  170   163   161 1
  171   164   163 1
  172   165   159 1
  173   165   164 1
  174   166   165 1
  175   167   166 1
  176   168   167 1
  177   169   168 1
  178   170   169 1
  179   171   170 1
  180   172   171 1
  181   173   172 1
  182   174   153 1
  183   174   173 1
  184   175   159 1
  185   176   159 1
  186   177   164 1
  187   178   168 1
  188   179   172 1
  189   180   179 1
  190   181   179 1
  191   182   179 1
  192   183   178 1
  193   184   178 1
  194   185   178 1
  195   186   177 1
  196   187   177 1
  197   188   177 1
  198   189   176 1
  199   190   176 1
  200   191   176 1
  201   192   175 1
  202   193   175 1
  203   194   175 1
  204   195   160 1
  205   196   160 1
  206   197   158 1
  207   198   158 1
  208   199   158 1
  209   200   157 1
  210   201   157 1
  211   202   157 1
  212   203   156 1
  213   204   156 1
  214   205   156 1
  215   206   155 1
  216   207   155 1
  217   208   155 1
  218   209   154 1
  219   210   154 1
  220   211   154 1
  221   212   141 1
  222   213   146 1
  223   214   145 1
  224   215   142 1
  225   216   142 1
  226   217   174 1
  227   218   173 1
  228   219   171 1
  229   220   170 1
  230   221   169 1
  231   222   140 1
  232   223   167 1
  233   224   166 1
  234   225   165 1
  235   226   163 1
  236   227   161 1
  237   228   139 1
  238   229   139 1
  239   230   153 1
  240   231   152 1
  241   232   150 1
  242   233   149 1
  243   234   148 1
  244   235   162 1
  245   65    153 1
  246   65    174 1
@<TRIPOS>SUBSTRUCTURE
      1 CLA               1 ****               0 ****  **** 
      2 LUT             138 ****               0 ****  **** 
