@<TRIPOS>MOLECULE
Cpptraj generated mol2 file.
  235   246     2     0     0
SMALL
USER_CHARGES


@<TRIPOS>ATOM
      1 CAA        77.5340   57.8364   35.4926 a2         1 CLA     -0.055900
      2 CAB        77.7559   62.4351   43.9338 c8         1 CLA     -0.148500
      3 CAC        70.8917   57.7367   44.0988 a2         1 CLA     -0.012600
      4 CAD        73.3575   55.2541   36.6362 ck         1 CLA      0.398800
      5 NA         76.5562   58.3143   38.7890 ns         1 CLA     -0.225500
      6 CBA        78.8028   57.6775   34.6582 a2         1 CLA     -0.135000
      7 CBB        77.5648   61.8152   45.1609 c0         1 CLA     -0.395200
      8 CBC        71.0795   56.2173   44.1118 a3         1 CLA     -0.037700
      9 CBD        74.8910   55.5810   36.4640 a1         1 CLA     -0.053900
     10 NB         76.4604   60.1867   41.1946 nm         1 CLA     -0.295700
     11 OBD        72.6490   54.4799   35.9715 o2         1 CLA     -0.494600
     12 CGA        79.1803   56.2123   34.3210 c4         1 CLA      0.827000
     13 CGD        75.7657   54.3035   36.6096 c4         1 CLA      0.655300
     14 ND         73.7268   57.5472   39.3368 nm         1 CLA     -0.291600
     15 CED        76.1607   52.3857   37.9294 a3         1 CLA      0.005400
     16 CHA        75.2012   56.6932   37.5478 cs         1 CLA     -0.123800
     17 CHB        78.2742   59.9928   39.4887 aa         1 CLA     -0.291900
     18 CHC        75.1408   60.5873   43.1874 aa         1 CLA     -0.090400
     19 CHD        72.0368   57.3937   41.0458 aa         1 CLA     -0.052000
     20 CMA        79.9612   57.4045   38.2396 a3         1 CLA     -0.230700
     21 CMB        79.6915   61.8945   41.4312 a3         1 CLA     -0.180800
     22 CMC        72.9571   59.8624   45.4343 a3         1 CLA     -0.134000
     23 CMD        70.6361   55.6396   38.7748 a3         1 CLA     -0.141100
     24 C1         80.1785   54.2429   35.3995 a2         1 CLA      0.023000
     25 C1A        76.3854   57.4395   37.7752 ac         1 CLA     -0.015100
     26 C1B        77.7066   60.5101   40.6993 cr         1 CLA      0.054700
     27 C1C        74.0415   59.7204   43.0388 cn         1 CLA     -0.005600
     28 C1D        72.5126   57.1150   39.7438 ap         1 CLA     -0.047300
     29 O1A        78.9205   55.6103   33.3028 o2         1 CLA     -0.610800
     30 O1D        76.7692   54.0429   35.9715 o2         1 CLA     -0.558200
     31 C2         80.7940   53.8620   36.6736 c8         1 CLA     -0.325100
     32 C2A        77.6774   57.3831   36.9525 a1         1 CLA      0.098600
     33 C2B        78.2357   61.5096   41.5435 cb         1 CLA      0.088500
     34 C2C        72.9990   59.3369   44.0128 cb         1 CLA      0.053700
     35 C2D        72.0053   56.2734   38.7336 cb         1 CLA      0.058900
     36 O2A        79.8589   55.6514   35.4116 o1         1 CLA     -0.437200
     37 O2D        75.4318   53.6089   37.7033 o1         1 CLA     -0.357600
     38 C3         81.8036   53.0052   36.8662 c5         1 CLA      0.031200
     39 C3A        78.6853   58.2074   37.7177 a1         1 CLA      0.166800
     40 C3B        77.4280   61.6952   42.6543 cb         1 CLA      0.035000
     41 C3C        72.0983   58.4241   43.4766 cb         1 CLA     -0.089900
     42 C3D        73.0447   56.0266   37.8806 cb         1 CLA     -0.035900
     43 C4         81.5568   51.5900   37.1950 a3         1 CLA     -0.053300
     44 C4A        77.8055   58.9044   38.7091 ac         1 CLA      0.001800
     45 C4B        76.2600   60.8618   42.3684 cn         1 CLA     -0.020900
     46 C4C        72.6156   58.2595   42.0725 cr         1 CLA     -0.044400
     47 C4D        74.0838   56.7769   38.3546 c6         1 CLA     -0.046000
     48 C5         83.2142   53.3256   36.5820 a2         1 CLA     -0.070400
     49 C6         83.6587   54.8284   36.6354 a2         1 CLA      0.043900
     50 C7         83.6805   55.6006   38.0199 a2         1 CLA     -0.150000
     51 C8         84.2414   57.0538   38.1005 a1         1 CLA      0.064200
     52 C9         85.5548   57.1959   37.2279 a3         1 CLA     -0.259300
     53 C10        84.5288   57.5491   39.5407 a2         1 CLA     -0.071900
     54 C11        83.1581   57.6602   40.3123 a2         1 CLA      0.014500
     55 C12        83.3624   58.4222   41.7063 a2         1 CLA     -0.112100
     56 C13        84.0821   57.7217   42.8928 a1         1 CLA      0.089200
     57 C14        83.2416   56.4952   43.4037 a3         1 CLA     -0.239100
     58 C15        84.3575   58.8041   44.0679 a2         1 CLA     -0.102200
     59 C16        83.1086   59.5004   44.6455 a2         1 CLA      0.023900
     60 C17        83.4636   60.4283   45.8421 a2         1 CLA     -0.105700
     61 C18        82.3810   60.9234   46.8011 a1         1 CLA      0.206800
     62 C19        83.0123   61.4305   48.1307 a3         1 CLA     -0.280100
     63 C20        81.4080   61.9781   46.2788 a3         1 CLA     -0.280100
     64 NC         73.7845   59.0041   41.8658 nx         1 CLA     -0.309200
     65 MG         75.0291   58.9270   40.2410 mg         1 CLA      0.895000
     66 HMD3       70.6795   54.6734   38.1993 dc         1 CLA      0.064300
     67 HMD2       70.2786   55.4059   39.8138 dc         1 CLA      0.064300
     68 HMD1       69.9555   56.3205   38.3838 dc         1 CLA      0.064300
     69 HMC3       72.6215   60.9379   45.4384 dc         1 CLA      0.052100
     70 HMC2       72.4493   59.2096   46.1008 dc         1 CLA      0.052100
     71 HMC1       73.9890   59.9047   45.7908 dc         1 CLA      0.052100
     72 HMB3       79.8869   62.5674   42.2704 dc         1 CLA      0.063600
     73 HMB2       80.3446   61.0712   41.5620 dc         1 CLA      0.063600
     74 HMB1       79.8910   62.4961   40.5889 dc         1 CLA      0.063600
     75 HMA3       80.5609   56.9963   37.4362 dc         1 CLA      0.058300
     76 HMA2       80.5707   58.0754   38.8428 dc         1 CLA      0.058300
     77 HMA1       79.4958   56.5872   38.7390 dc         1 CLA      0.058300
     78 HED3       76.1297   51.7591   37.0918 dc         1 CLA      0.079300
     79 HED2       77.2458   52.4498   38.1379 dc         1 CLA      0.079300
     80 HED1       75.6848   51.8760   38.7860 dc         1 CLA      0.079300
     81 HBC3       71.0164   55.8067   43.1176 dc         1 CLA      0.016300
     82 HBC2       72.1372   55.9287   44.2695 dc         1 CLA      0.016300
     83 HBC1       70.4423   55.6733   44.8825 dc         1 CLA      0.016300
     84 HBB2       77.9225   62.3188   46.0873 da         1 CLA      0.183000
     85 HBB1       77.0702   60.9064   45.3131 da         1 CLA      0.183000
     86 HBA2       78.7427   58.2206   33.6969 dc         1 CLA      0.029400
     87 HBA1       79.6619   58.1495   35.1762 dc         1 CLA      0.029400
     88 HAC2       70.6484   58.1708   45.0244 dc         1 CLA      0.029300
     89 HAC1       70.0153   57.9471   43.4548 dc         1 CLA      0.029300
     90 HAA2       76.7619   57.3003   34.9432 dc         1 CLA      0.028700
     91 HAA1       77.3443   58.9590   35.2964 dc         1 CLA      0.028700
     92 H203       80.8035   62.3208   47.1279 dc         1 CLA      0.065600
     93 H202       81.9205   62.8354   45.8962 dc         1 CLA      0.065600
     94 H201       80.6375   61.5055   45.5720 dc         1 CLA      0.065600
     95 H193       83.7541   62.1860   48.0218 dc         1 CLA      0.065600
     96 H192       82.2344   61.7267   48.7817 dc         1 CLA      0.065600
     97 H191       83.4805   60.4780   48.5725 dc         1 CLA      0.065600
     98 H172       84.1628   59.9246   46.3967 dc         1 CLA      0.027600
     99 H171       83.9417   61.2293   45.3705 dc         1 CLA      0.027600
    100 H162       82.4725   60.0598   43.9091 dc         1 CLA      0.002900
    101 H161       82.5157   58.6860   45.0763 dc         1 CLA      0.002900
    102 H152       85.0187   58.5239   44.9184 dc         1 CLA      0.029100
    103 H151       84.8887   59.6334   43.6260 dc         1 CLA      0.029100
    104 H143       83.7210   56.1229   44.2570 dc         1 CLA      0.063600
    105 H142       82.3092   56.9573   43.7583 dc         1 CLA      0.063600
    106 H141       83.0565   55.7887   42.6128 dc         1 CLA      0.063600
    107 H122       83.8540   59.3942   41.5491 dc         1 CLA      0.032500
    108 H121       82.3964   58.5372   42.0239 dc         1 CLA      0.032500
    109 H112       82.4639   58.2162   39.6680 dc         1 CLA      0.006600
    110 H111       82.6952   56.6468   40.4730 dc         1 CLA      0.006600
    111 H102       85.0963   56.8584   40.1283 dc         1 CLA      0.024100
    112 H101       84.8941   58.5617   39.5464 dc         1 CLA      0.024100
    113 HHD        71.0761   57.0597   41.3080 da         1 CLA      0.174300
    114 HHC        75.2562   60.9471   44.2042 da         1 CLA      0.136800
    115 HHB        79.2656   60.3162   39.2335 da         1 CLA      0.138300
    116 HBD        74.8536   55.9496   35.4602 dc         1 CLA      0.107700
    117 HAB        78.2311   63.3884   43.8944 da         1 CLA      0.155200
    118 H93        86.3553   56.4860   37.5453 dc         1 CLA      0.069500
    119 H92        85.3199   57.0605   36.1514 dc         1 CLA      0.069500
    120 H91        86.0764   58.1307   37.2960 dc         1 CLA      0.069500
    121 H8         83.5479   57.7465   37.5403 dc         1 CLA      0.029300
    122 H72        82.6799   55.5717   38.3869 dc         1 CLA      0.044400
    123 H71        84.2801   55.0679   38.6572 dc         1 CLA      0.044400
    124 H62        84.7548   54.7037   36.3803 dc         1 CLA      0.015600
    125 H61        83.0888   55.3741   35.9221 dc         1 CLA      0.015600
    126 H52        83.9133   52.9738   37.3003 dc         1 CLA      0.033200
    127 H51        83.4665   52.7117   35.7218 dc         1 CLA      0.033200
    128 H43        80.5304   51.3934   37.4998 dc         1 CLA      0.037000
    129 H42        81.8605   50.9365   36.4102 dc         1 CLA      0.037000
    130 H41        82.0413   51.4254   38.1288 dc         1 CLA      0.037000
    131 H3A        79.0903   58.9621   37.0737 dc         1 CLA      0.041100
    132 H2A        77.9621   56.2901   36.9356 dc         1 CLA      0.083100
    133 H2         80.5149   54.3946   37.6320 da         1 CLA      0.180900
    134 H18        81.8201   60.0368   47.0625 dc         1 CLA     -0.003900
    135 H13        85.0169   57.2968   42.5196 dc         1 CLA      0.019700
    136 H12        79.3125   53.5847   35.3039 dc         1 CLA      0.120400
    137 H11        80.7870   53.9462   34.5854 dc         1 CLA      0.120400
    138 C1         68.0539   61.8561   50.4339 Z1         2 LUT      0.509236
    139 C2         66.9313   61.6035   51.4828 Z2         2 LUT     -0.434695
    140 C3         66.2342   62.8112   52.0783 Z3         2 LUT      0.437453
    141 O3         66.9149   63.2803   53.2720 S1         2 LUT     -0.547129
    142 C4         66.1498   63.9820   51.2237 Z4         2 LUT     -0.468603
    143 C5         66.4442   63.6805   49.7332 Z5         2 LUT      0.279246
    144 C6         67.3419   62.7145   49.3542 Z6         2 LUT     -0.305473
    145 C7         67.4646   62.2574   47.9219 Z7         2 LUT      0.069402
    146 C8         68.6754   62.1950   47.3285 Z8         2 LUT     -0.191631
    147 C9         69.0731   61.7824   46.0261 Z9         2 LUT      0.196698
    148 C10        70.1613   62.4224   45.4479 Y1         2 LUT     -0.208611
    149 C11        70.7038   62.3882   44.1055 Y2         2 LUT      0.030784
    150 C12        71.8469   63.1251   43.8973 Y3         2 LUT     -0.220316
    151 C13        72.6649   63.1386   42.7143 Y4         2 LUT      0.215937
    152 C14        73.7897   64.0035   42.7061 Y5         2 LUT     -0.185793
    153 C15        74.9191   64.0437   41.8575 Y6         2 LUT     -0.057835
    154 C16        68.7036   60.5005   49.9413 Y7         2 LUT     -0.405615
    155 C17        69.1064   62.7037   51.2603 Y7         2 LUT     -0.405615
    156 C18        65.6384   64.5130   48.7714 Y9         2 LUT     -0.369639
    157 C19        68.3884   60.6504   45.3265 W1         2 LUT     -0.333362
    158 C20        72.3845   62.1576   41.5982 W2         2 LUT     -0.323439
    159 C21        85.9300   65.0642   35.4286 Z1         2 LUT      0.406104
    160 C22        86.5596   64.4976   34.1963 Z2         2 LUT     -0.404965
    161 C23        86.4996   65.3458   33.0003 Z3         2 LUT      0.391255
    162 O23        86.7478   64.5073   31.8916 S1         2 LUT     -0.528210
    163 C24        85.2980   66.1554   32.8968 W6         2 LUT     -0.258361
    164 C25        84.2902   66.2769   33.8325 Z5         2 LUT      0.133546
    165 C26        84.4147   65.5576   35.1715 W8         2 LUT     -0.147008
    166 C27        83.8143   66.2570   36.3908 Z7         2 LUT      0.023843
    167 C28        82.9143   65.7389   37.2687 Z8         2 LUT     -0.216987
    168 C29        82.5319   66.2789   38.5526 Z9         2 LUT      0.206524
    169 C30        81.4251   65.6905   38.9922 Y1         2 LUT     -0.215556
    170 C31        80.6103   65.9286   40.1675 Y2         2 LUT      0.025142
    171 C32        79.2839   65.4215   40.2574 Y3         2 LUT     -0.212209
    172 C33        78.4145   65.3996   41.4468 Y4         2 LUT      0.240937
    173 C34        77.2448   64.6770   41.3353 Y5         2 LUT     -0.218862
    174 C35        76.0870   64.6572   42.1868 Y6         2 LUT     -0.023547
    175 C36        86.8353   66.3325   35.8373 Y7         2 LUT     -0.393485
    176 C37        86.1264   64.1075   36.6401 Y7         2 LUT     -0.393485
    177 C38        83.2422   67.3354   33.5658 Y9         2 LUT     -0.387526
    178 C39        83.2036   67.5509   39.1009 W1         2 LUT     -0.322618
    179 C40        78.8289   66.2754   42.6386 W2         2 LUT     -0.358472
    180 H403       78.0520   66.2809   43.4033 R7         2 LUT      0.097720
    181 H402       79.5856   65.8373   43.1961 R7         2 LUT      0.097720
    182 H401       79.1080   67.2194   42.2532 R7         2 LUT      0.097720
    183 H393       83.8235   67.3646   39.9890 R4         2 LUT      0.082505
    184 H392       83.8086   68.0954   38.4294 R4         2 LUT      0.082505
    185 H391       82.4119   68.2958   39.2926 R4         2 LUT      0.082505
    186 H383       83.1903   68.0076   34.4050 R1         2 LUT      0.104030
    187 H382       83.4657   67.9155   32.6098 R1         2 LUT      0.104030
    188 H381       82.3042   66.8562   33.5105 R1         2 LUT      0.104030
    189 H373       87.1794   63.6790   36.6013 T4         2 LUT      0.089537
    190 H372       86.0245   64.4639   37.6620 T4         2 LUT      0.089537
    191 H371       85.5718   63.2064   36.5230 T4         2 LUT      0.089537
    192 H363       86.7646   67.2115   35.1976 T4         2 LUT      0.089537
    193 H362       86.5432   66.5535   36.8651 T4         2 LUT      0.089537
    194 H361       87.8819   66.0484   35.9877 T4         2 LUT      0.089537
    195 H222       87.6408   64.3018   34.4849 U2         2 LUT      0.127376
    196 H221       86.0360   63.4901   34.0016 U2         2 LUT      0.127376
    197 H203       71.8231   61.1804   41.8195 R7         2 LUT      0.087068
    198 H202       71.7858   62.6150   40.8326 R7         2 LUT      0.087068
    199 H201       73.3298   61.8125   41.1475 R7         2 LUT      0.087068
    200 H193       69.0551   60.1958   44.5832 R4         2 LUT      0.089716
    201 H192       68.1727   59.9031   46.0442 R4         2 LUT      0.089716
    202 H191       67.4823   61.0072   44.8037 R4         2 LUT      0.089716
    203 H183       65.4779   63.9779   47.8742 R1         2 LUT      0.094572
    204 H182       64.6458   64.6487   49.1397 R1         2 LUT      0.094572
    205 H181       66.0662   65.5422   48.6316 R1         2 LUT      0.094572
    206 H173       69.4561   62.1699   52.1820 T4         2 LUT      0.093752
    207 H172       70.0727   62.7778   50.7750 T4         2 LUT      0.093752
    208 H171       68.8380   63.6337   51.4422 T4         2 LUT      0.093752
    209 H163       69.2732   60.0678   50.7517 T4         2 LUT      0.093752
    210 H162       68.0543   59.6286   49.6339 T4         2 LUT      0.093752
    211 H161       69.4462   60.6128   49.1780 T4         2 LUT      0.093752
    212 HO3        66.8033   62.6948   54.0408 Q1         2 LUT      0.300121
    213 H8         69.4124   62.6180   47.8292 U7         2 LUT      0.080784
    214 H7         66.5891   61.9855   47.3734 U6         2 LUT      0.042190
    215 H42        65.2936   64.6685   51.2341 U5         2 LUT      0.145166
    216 H41        66.8683   64.7319   51.5241 U5         2 LUT      0.145166
    217 H35        76.0683   65.1153   43.2008 T3         2 LUT      0.077919
    218 H34        77.0632   64.2871   40.3376 T2         2 LUT      0.073626
    219 H32        78.8551   64.9428   39.3237 T1         2 LUT      0.092510
    220 H31        81.0672   66.4109   41.0812 U9         2 LUT      0.070048
    221 H30        81.0028   64.8024   38.4269 U8         2 LUT      0.085442
    222 H3         65.2549   62.4082   52.3740 U3         2 LUT     -0.031596
    223 H28        82.4880   64.8008   37.1009 U7         2 LUT      0.084728
    224 H27        84.3217   67.1971   36.6508 U6         2 LUT      0.087291
    225 H26        83.7832   64.6421   35.2100 Q6         2 LUT      0.075325
    226 H24        85.2336   66.6490   31.9015 Q5         2 LUT      0.094482
    227 H23        87.2647   66.1658   33.1608 U3         2 LUT     -0.024869
    228 H22        66.1701   60.8746   51.0429 U2         2 LUT      0.127376
    229 H21        67.2278   60.9086   52.2629 U2         2 LUT      0.127376
    230 H15        74.9003   63.5591   40.9050 T3         2 LUT      0.093200
    231 H14        73.8146   64.5807   43.6067 T2         2 LUT      0.068865
    232 H12        72.2149   63.7762   44.7303 T1         2 LUT      0.095507
    233 H11        70.3292   61.6199   43.3717 U9         2 LUT      0.068930
    234 H10        70.7119   63.1867   45.9457 U8         2 LUT      0.083911
    235 H1         87.6777   64.3240   31.6791 Q1         2 LUT      0.297311
@<TRIPOS>BOND
    1     6     1 1
    2     7     2 1
    3     8     3 1
    4     9     4 1
    5    11     4 1
    6    12     6 1
    7    13     9 1
    8    16     9 1
    9    25     5 1
   10    25    16 1
   11    26    10 1
   12    26    17 1
   13    27    18 1
   14    28    14 1
   15    28    19 1
   16    29    12 1
   17    30    13 1
   18    31    24 1
   19    32     1 1
   20    32    25 1
   21    33    21 1
   22    33    26 1
   23    34    22 1
   24    34    27 1
   25    35    23 1
   26    35    28 1
   27    36    12 1
   28    36    24 1
   29    37    13 1
   30    37    15 1
   31    38    31 1
   32    39    20 1
   33    39    32 1
   34    40     2 1
   35    40    33 1
   36    41     3 1
   37    41    34 1
   38    42     4 1
   39    42    35 1
   40    43    38 1
   41    44     5 1
   42    44    17 1
   43    44    39 1
   44    45    10 1
   45    45    18 1
   46    45    40 1
   47    46    19 1
   48    46    41 1
   49    47    14 1
   50    47    16 1
   51    47    42 1
   52    48    38 1
   53    49    48 1
   54    50    49 1
   55    51    50 1
   56    52    51 1
   57    53    51 1
   58    54    53 1
   59    55    54 1
   60    56    55 1
   61    57    56 1
   62    58    56 1
   63    59    58 1
   64    60    59 1
   65    61    60 1
   66    62    61 1
   67    63    61 1
   68    64    27 1
   69    64    46 1
   70    65     5 1
   71    65    10 1
   72    65    64 1
   73    65    14 1
   74    66    23 1
   75    67    23 1
   76    68    23 1
   77    69    22 1
   78    70    22 1
   79    71    22 1
   80    72    21 1
   81    73    21 1
   82    74    21 1
   83    75    20 1
   84    76    20 1
   85    77    20 1
   86    78    15 1
   87    79    15 1
   88    80    15 1
   89    81     8 1
   90    82     8 1
   91    83     8 1
   92    84     7 1
   93    85     7 1
   94    86     6 1
   95    87     6 1
   96    88     3 1
   97    89     3 1
   98    90     1 1
   99    91     1 1
  100    92    63 1
  101    93    63 1
  102    94    63 1
  103    95    62 1
  104    96    62 1
  105    97    62 1
  106    98    60 1
  107    99    60 1
  108   100    59 1
  109   101    59 1
  110   102    58 1
  111   103    58 1
  112   104    57 1
  113   105    57 1
  114   106    57 1
  115   107    55 1
  116   108    55 1
  117   109    54 1
  118   110    54 1
  119   111    53 1
  120   112    53 1
  121   113    19 1
  122   114    18 1
  123   115    17 1
  124   116     9 1
  125   117     2 1
  126   118    52 1
  127   119    52 1
  128   120    52 1
  129   121    51 1
  130   122    50 1
  131   123    50 1
  132   124    49 1
  133   125    49 1
  134   126    48 1
  135   127    48 1
  136   128    43 1
  137   129    43 1
  138   130    43 1
  139   131    39 1
  140   132    32 1
  141   133    31 1
  142   134    61 1
  143   135    56 1
  144   136    24 1
  145   137    24 1
  146   139   138 1
  147   140   139 1
  148   141   140 1
  149   142   140 1
  150   143   142 1
  151   144   138 1
  152   144   143 1
  153   145   144 1
  154   146   145 1
  155   147   146 1
  156   148   147 1
  157   149   148 1
  158   150   149 1
  159   151   150 1
  160   152   151 1
  161   153   152 1
  162   154   138 1
  163   155   138 1
  164   156   143 1
  165   157   147 1
  166   158   151 1
  167   160   159 1
  168   161   160 1
  169   162   161 1
  170   163   161 1
  171   164   163 1
  172   165   159 1
  173   165   164 1
  174   166   165 1
  175   167   166 1
  176   168   167 1
  177   169   168 1
  178   170   169 1
  179   171   170 1
  180   172   171 1
  181   173   172 1
  182   174   153 1
  183   174   173 1
  184   175   159 1
  185   176   159 1
  186   177   164 1
  187   178   168 1
  188   179   172 1
  189   180   179 1
  190   181   179 1
  191   182   179 1
  192   183   178 1
  193   184   178 1
  194   185   178 1
  195   186   177 1
  196   187   177 1
  197   188   177 1
  198   189   176 1
  199   190   176 1
  200   191   176 1
  201   192   175 1
  202   193   175 1
  203   194   175 1
  204   195   160 1
  205   196   160 1
  206   197   158 1
  207   198   158 1
  208   199   158 1
  209   200   157 1
  210   201   157 1
  211   202   157 1
  212   203   156 1
  213   204   156 1
  214   205   156 1
  215   206   155 1
  216   207   155 1
  217   208   155 1
  218   209   154 1
  219   210   154 1
  220   211   154 1
  221   212   141 1
  222   213   146 1
  223   214   145 1
  224   215   142 1
  225   216   142 1
  226   217   174 1
  227   218   173 1
  228   219   171 1
  229   220   170 1
  230   221   169 1
  231   222   140 1
  232   223   167 1
  233   224   166 1
  234   225   165 1
  235   226   163 1
  236   227   161 1
  237   228   139 1
  238   229   139 1
  239   230   153 1
  240   231   152 1
  241   232   150 1
  242   233   149 1
  243   234   148 1
  244   235   162 1
  245   65    153 1
  246   65    174 1
@<TRIPOS>SUBSTRUCTURE
      1 CLA               1 ****               0 ****  **** 
      2 LUT             138 ****               0 ****  **** 
