@<TRIPOS>MOLECULE
Cpptraj generated mol2 file.
  235   246     2     0     0
SMALL
USER_CHARGES


@<TRIPOS>ATOM
      1 CAA        78.6973   57.6803   34.8041 a2         1 CLA     -0.055900
      2 CAB        77.6542   60.9302   44.0672 c8         1 CLA     -0.148500
      3 CAC        71.1371   56.3992   42.8202 a2         1 CLA     -0.012600
      4 CAD        74.6092   54.7591   35.7075 ck         1 CLA      0.398800
      5 NA         77.3395   57.7759   38.2441 ns         1 CLA     -0.225500
      6 CBA        79.9442   57.4679   33.9226 a2         1 CLA     -0.135000
      7 CBB        78.7477   61.0271   44.8350 c0         1 CLA     -0.395200
      8 CBC        71.4544   54.9027   42.8458 a3         1 CLA     -0.037700
      9 CBD        76.0432   55.4924   35.4736 a1         1 CLA     -0.053900
     10 NB         76.8123   59.2539   40.8280 nm         1 CLA     -0.295700
     11 OBD        74.0486   53.9666   34.8980 o2         1 CLA     -0.494600
     12 CGA        80.5158   56.0912   33.8269 c4         1 CLA      0.827000
     13 CGD        77.1306   54.3824   35.3009 c4         1 CLA      0.655300
     14 ND         74.7987   56.5278   38.7603 nm         1 CLA     -0.291600
     15 CED        78.0727   52.4421   36.3505 a3         1 CLA      0.005400
     16 CHA        76.2485   56.2489   36.7474 cs         1 CLA     -0.123800
     17 CHB        78.8636   59.2713   39.4781 aa         1 CLA     -0.291900
     18 CHC        75.4049   59.1789   42.8370 aa         1 CLA     -0.090400
     19 CHD        72.6929   56.2904   40.0628 aa         1 CLA     -0.052000
     20 CMA        80.8582   57.4481   37.8557 a3         1 CLA     -0.230700
     21 CMB        79.9023   61.0592   41.8062 a3         1 CLA     -0.180800
     22 CMC        72.8616   58.6338   44.5296 a3         1 CLA     -0.134000
     23 CMD        71.8720   54.3833   37.7760 a3         1 CLA     -0.141100
     24 C1         81.9497   54.3989   34.8460 a2         1 CLA      0.023000
     25 C1A        77.4030   57.0008   37.0847 ac         1 CLA     -0.015100
     26 C1B        78.0960   59.6539   40.5783 cr         1 CLA      0.054700
     27 C1C        74.2534   58.3997   42.3818 cn         1 CLA     -0.005600
     28 C1D        73.5438   55.9192   38.9620 ap         1 CLA     -0.047300
     29 O1A        80.2915   55.3087   32.9408 o2         1 CLA     -0.610800
     30 O1D        78.1628   54.4471   34.6576 o2         1 CLA     -0.558200
     31 C2         81.7764   53.8981   36.2865 c8         1 CLA     -0.325100
     32 C2A        78.7262   57.2027   36.3480 a1         1 CLA      0.098600
     33 C2B        78.5967   60.3996   41.7302 cb         1 CLA      0.088500
     34 C2C        73.0678   58.1706   43.1209 cb         1 CLA      0.053700
     35 C2D        73.1550   55.1185   37.9087 cb         1 CLA      0.058900
     36 O2A        81.3454   55.7369   34.8857 o1         1 CLA     -0.437200
     37 O2D        76.8420   53.2875   36.1412 o1         1 CLA     -0.357600
     38 C3         82.4994   52.9815   36.9488 c5         1 CLA      0.031200
     39 C3A        79.5472   58.0745   37.3380 a1         1 CLA      0.166800
     40 C3B        77.6244   60.3648   42.7113 cb         1 CLA      0.035000
     41 C3C        72.3565   57.2048   42.3973 cb         1 CLA     -0.089900
     42 C3D        74.1881   55.2379   37.0123 cb         1 CLA     -0.035900
     43 C4         82.0526   51.5701   36.9531 a3         1 CLA     -0.053300
     44 C4A        78.5482   58.3541   38.4212 ac         1 CLA      0.001800
     45 C4B        76.5206   59.6089   42.1700 cn         1 CLA     -0.020900
     46 C4C        73.0555   57.0683   41.1262 cr         1 CLA     -0.044400
     47 C4D        75.1452   56.1033   37.5792 c6         1 CLA     -0.046000
     48 C5         83.5202   53.3940   37.9035 a2         1 CLA     -0.070400
     49 C6         84.3149   54.7360   37.6168 a2         1 CLA      0.043900
     50 C7         85.0318   55.0296   39.0074 a2         1 CLA     -0.150000
     51 C8         85.8536   56.3268   39.0390 a1         1 CLA      0.064200
     52 C9         87.2088   56.1772   38.4053 a3         1 CLA     -0.259300
     53 C10        85.9634   56.8941   40.4974 a2         1 CLA     -0.071900
     54 C11        84.5824   57.5249   40.9389 a2         1 CLA      0.014500
     55 C12        84.8846   58.5051   42.1107 a2         1 CLA     -0.112100
     56 C13        85.3618   57.8420   43.4435 a1         1 CLA      0.089200
     57 C14        84.5321   56.6900   44.0201 a3         1 CLA     -0.239100
     58 C15        85.5468   58.8766   44.5984 a2         1 CLA     -0.102200
     59 C16        84.3777   59.5423   45.3609 a2         1 CLA      0.023900
     60 C17        84.8688   60.8223   46.0681 a2         1 CLA     -0.105700
     61 C18        83.9549   61.4284   47.1343 a1         1 CLA      0.206800
     62 C19        83.7906   60.4989   48.3531 a3         1 CLA     -0.280100
     63 C20        84.4015   62.8127   47.5553 a3         1 CLA     -0.280100
     64 NC         74.2612   57.7260   41.2024 nx         1 CLA     -0.309200
     65 MG         75.7178   57.9090   39.6769 mg         1 CLA      0.895000
     66 HMD3       72.0692   53.6713   36.9638 dc         1 CLA      0.064300
     67 HMD2       71.4667   53.8012   38.6422 dc         1 CLA      0.064300
     68 HMD1       71.1562   55.0764   37.3335 dc         1 CLA      0.064300
     69 HMC3       71.7697   58.5559   44.7842 dc         1 CLA      0.052100
     70 HMC2       73.4679   58.0440   45.2183 dc         1 CLA      0.052100
     71 HMC1       73.0421   59.6922   44.6018 dc         1 CLA      0.052100
     72 HMB3       80.7311   60.3644   42.0280 dc         1 CLA      0.063600
     73 HMB2       80.0400   61.5243   40.8046 dc         1 CLA      0.063600
     74 HMB1       79.8187   61.9720   42.4609 dc         1 CLA      0.063600
     75 HMA3       81.4657   58.1747   38.3874 dc         1 CLA      0.058300
     76 HMA2       80.5554   56.5785   38.5003 dc         1 CLA      0.058300
     77 HMA1       81.4577   57.1320   37.0363 dc         1 CLA      0.058300
     78 HED3       77.7411   51.7731   37.0397 dc         1 CLA      0.079300
     79 HED2       78.2104   51.8108   35.4825 dc         1 CLA      0.079300
     80 HED1       78.9774   52.9284   36.7207 dc         1 CLA      0.079300
     81 HBC3       72.4819   54.6750   43.3891 dc         1 CLA      0.016300
     82 HBC2       70.7244   54.3672   43.4753 dc         1 CLA      0.016300
     83 HBC1       71.4941   54.3927   41.9407 dc         1 CLA      0.016300
     84 HBB2       78.7147   61.4513   45.7611 da         1 CLA      0.183000
     85 HBB1       79.7183   60.7642   44.4948 da         1 CLA      0.183000
     86 HBA2       79.6221   57.8556   32.9850 dc         1 CLA      0.029400
     87 HBA1       80.6023   58.1219   34.3664 dc         1 CLA      0.029400
     88 HAC2       70.9134   56.6130   43.8875 dc         1 CLA      0.029300
     89 HAC1       70.2088   56.5939   42.2090 dc         1 CLA      0.029300
     90 HAA2       77.7632   57.1721   34.5127 dc         1 CLA      0.028700
     91 HAA1       78.5134   58.7427   34.6759 dc         1 CLA      0.028700
     92 H203       83.6038   63.3084   48.1155 dc         1 CLA      0.065600
     93 H202       85.3377   62.7285   48.1261 dc         1 CLA      0.065600
     94 H201       84.5140   63.3624   46.6333 dc         1 CLA      0.065600
     95 H193       84.8504   60.5166   48.6939 dc         1 CLA      0.065600
     96 H192       83.1030   60.9263   49.0348 dc         1 CLA      0.065600
     97 H191       83.4917   59.4920   48.1996 dc         1 CLA      0.065600
     98 H172       85.8674   60.5683   46.5384 dc         1 CLA      0.027600
     99 H171       84.9080   61.5030   45.1933 dc         1 CLA      0.027600
    100 H162       83.5091   59.8667   44.7166 dc         1 CLA      0.002900
    101 H161       84.0034   58.7980   46.0299 dc         1 CLA      0.002900
    102 H152       86.1767   58.3737   45.3125 dc         1 CLA      0.029100
    103 H151       86.1327   59.6921   44.1092 dc         1 CLA      0.029100
    104 H143       84.6120   55.8751   43.3797 dc         1 CLA      0.063600
    105 H142       84.9135   56.4403   44.9418 dc         1 CLA      0.063600
    106 H141       83.5239   56.9565   43.9767 dc         1 CLA      0.063600
    107 H122       85.6508   59.2461   41.8415 dc         1 CLA      0.032500
    108 H121       83.9240   58.9895   42.3014 dc         1 CLA      0.032500
    109 H112       84.0864   57.9629   40.0482 dc         1 CLA      0.006600
    110 H111       83.8551   56.7603   41.3314 dc         1 CLA      0.006600
    111 H102       86.1496   56.0882   41.1278 dc         1 CLA      0.024100
    112 H101       86.7095   57.5770   40.5991 dc         1 CLA      0.024100
    113 HHD        71.6997   55.8572   40.1324 da         1 CLA      0.174300
    114 HHC        75.2886   59.6379   43.8286 da         1 CLA      0.136800
    115 HHB        79.9402   59.5091   39.5925 da         1 CLA      0.138300
    116 HBD        75.9920   56.1545   34.6131 dc         1 CLA      0.107700
    117 HAB        76.7430   61.2468   44.4981 da         1 CLA      0.155200
    118 H93        87.1123   55.9199   37.4072 dc         1 CLA      0.069500
    119 H92        87.6595   57.1677   38.3676 dc         1 CLA      0.069500
    120 H91        87.7207   55.3651   38.9422 dc         1 CLA      0.069500
    121 H8         85.3911   57.1430   38.4850 dc         1 CLA      0.029300
    122 H72        84.1567   55.0064   39.7190 dc         1 CLA      0.044400
    123 H71        85.7101   54.2173   39.2996 dc         1 CLA      0.044400
    124 H62        85.0648   54.6276   36.8341 dc         1 CLA      0.015600
    125 H61        83.6880   55.5813   37.3165 dc         1 CLA      0.015600
    126 H52        83.0268   53.4741   38.8592 dc         1 CLA      0.033200
    127 H51        84.2692   52.6811   37.8139 dc         1 CLA      0.033200
    128 H43        81.1684   51.2821   36.4242 dc         1 CLA      0.037000
    129 H42        82.7568   50.8758   36.6078 dc         1 CLA      0.037000
    130 H41        81.8333   51.2938   37.9526 dc         1 CLA      0.037000
    131 H3A        79.9473   58.8764   36.6829 dc         1 CLA      0.041100
    132 H2A        79.0803   56.2728   36.2769 dc         1 CLA      0.083100
    133 H2         80.8718   54.4019   36.7342 da         1 CLA      0.180900
    134 H18        83.0007   61.6497   46.7085 dc         1 CLA     -0.003900
    135 H13        86.3485   57.4558   43.3121 dc         1 CLA      0.019700
    136 H12        81.5220   53.7043   34.1528 dc         1 CLA      0.120400
    137 H11        82.9830   54.4503   34.6701 dc         1 CLA      0.120400
    138 C1         67.5842   60.7883   49.8698 Z1         2 LUT      0.509236
    139 C2         66.3645   60.5746   50.7540 Z2         2 LUT     -0.434695
    140 C3         65.5278   61.7588   51.0753 Z3         2 LUT      0.437453
    141 O3         65.4856   61.9722   52.4831 S1         2 LUT     -0.547129
    142 C4         65.8037   63.0436   50.2199 Z4         2 LUT     -0.468603
    143 C5         66.3535   62.7012   48.8538 Z5         2 LUT      0.279246
    144 C6         67.2843   61.6879   48.6818 Z6         2 LUT     -0.305473
    145 C7         67.8331   61.2033   47.4175 Z7         2 LUT      0.069402
    146 C8         68.9433   61.5431   46.8527 Z8         2 LUT     -0.191631
    147 C9         69.4579   61.1259   45.5238 Z9         2 LUT      0.196698
    148 C10        70.4528   61.9176   44.9383 Y1         2 LUT     -0.208611
    149 C11        71.1013   61.8233   43.6723 Y2         2 LUT      0.030784
    150 C12        72.2803   62.4886   43.3676 Y3         2 LUT     -0.220316
    151 C13        73.2255   62.3996   42.2005 Y4         2 LUT      0.215937
    152 C14        74.3608   63.1501   42.2497 Y5         2 LUT     -0.185793
    153 C15        75.4902   63.0551   41.3615 Y6         2 LUT     -0.057835
    154 C16        68.2114   59.3831   49.5887 Y7         2 LUT     -0.405615
    155 C17        68.6288   61.5237   50.7404 Y7         2 LUT     -0.405615
    156 C18        65.9679   63.6796   47.7918 Y9         2 LUT     -0.369639
    157 C19        68.8371   59.8756   44.8865 W1         2 LUT     -0.333362
    158 C20        72.8914   61.4360   41.0938 W2         2 LUT     -0.323439
    159 C21        87.3939   64.9769   35.4542 Z1         2 LUT      0.406104
    160 C22        88.0697   64.3220   34.2173 Z2         2 LUT     -0.404965
    161 C23        88.1524   65.2989   33.0821 Z3         2 LUT      0.391255
    162 O23        88.4764   64.4813   32.0337 S1         2 LUT     -0.528210
    163 C24        86.8455   65.9762   32.7881 W6         2 LUT     -0.258361
    164 C25        85.8537   66.1694   33.6429 Z5         2 LUT      0.133546
    165 C26        85.9026   65.4115   34.9730 W8         2 LUT     -0.147008
    166 C27        84.9498   65.9765   36.0408 Z7         2 LUT      0.023843
    167 C28        83.9601   65.3137   36.7077 Z8         2 LUT     -0.216987
    168 C29        83.1034   65.6786   37.8557 Z9         2 LUT      0.206524
    169 C30        81.9784   64.9268   38.1958 Y1         2 LUT     -0.215556
    170 C31        81.0636   65.0097   39.3524 Y2         2 LUT      0.025142
    171 C32        79.9077   64.2729   39.4403 Y3         2 LUT     -0.212209
    172 C33        78.9325   64.4216   40.6017 Y4         2 LUT      0.240937
    173 C34        77.7706   63.6992   40.6008 Y5         2 LUT     -0.218862
    174 C35        76.6445   63.8146   41.5639 Y6         2 LUT     -0.023547
    175 C36        88.3088   66.1081   35.9572 Y7         2 LUT     -0.393485
    176 C37        87.5711   63.7460   36.4741 Y7         2 LUT     -0.393485
    177 C38        84.4741   66.8951   33.3907 Y9         2 LUT     -0.387526
    178 C39        83.6047   66.8312   38.6848 W1         2 LUT     -0.322618
    179 C40        79.3123   65.5160   41.6198 W2         2 LUT     -0.358472
    180 H403       80.3180   65.2864   42.0503 R7         2 LUT      0.097720
    181 H402       79.2996   66.5142   41.0905 R7         2 LUT      0.097720
    182 H401       78.5761   65.5420   42.4585 R7         2 LUT      0.097720
    183 H393       84.6851   66.9579   38.6685 R4         2 LUT      0.082505
    184 H392       82.9892   67.7159   38.5934 R4         2 LUT      0.082505
    185 H391       83.3454   66.6319   39.7234 R4         2 LUT      0.082505
    186 H383       84.4212   67.1560   32.3571 R1         2 LUT      0.104030
    187 H382       83.6215   66.2403   33.5218 R1         2 LUT      0.104030
    188 H381       84.4820   67.8541   33.9093 R1         2 LUT      0.104030
    189 H373       88.5016   63.2333   36.3983 T4         2 LUT      0.089537
    190 H372       87.4146   63.9372   37.5842 T4         2 LUT      0.089537
    191 H371       86.8261   62.9929   36.1544 T4         2 LUT      0.089537
    192 H363       89.2190   65.6218   36.2941 T4         2 LUT      0.089537
    193 H362       88.5124   66.8379   35.1460 T4         2 LUT      0.089537
    194 H361       87.8899   66.7187   36.8011 T4         2 LUT      0.089537
    195 H222       89.1142   63.9895   34.4650 U2         2 LUT      0.127376
    196 H221       87.4393   63.4694   33.8846 U2         2 LUT      0.127376
    197 H203       73.4110   60.4665   41.0865 R7         2 LUT      0.087068
    198 H202       71.8205   61.1622   41.1168 R7         2 LUT      0.087068
    199 H201       73.0298   61.7393   40.0407 R7         2 LUT      0.087068
    200 H193       68.0426   60.1635   44.1736 R4         2 LUT      0.089716
    201 H192       69.5835   59.3843   44.2998 R4         2 LUT      0.089716
    202 H191       68.4388   59.0769   45.5528 R4         2 LUT      0.089716
    203 H183       66.1545   63.2480   46.8207 R1         2 LUT      0.094572
    204 H182       64.9536   64.0990   47.8558 R1         2 LUT      0.094572
    205 H181       66.5978   64.5579   47.9459 R1         2 LUT      0.094572
    206 H173       68.7465   60.9487   51.6358 T4         2 LUT      0.093752
    207 H172       69.6047   61.5623   50.2807 T4         2 LUT      0.093752
    208 H171       68.3109   62.5368   50.9800 T4         2 LUT      0.093752
    209 H163       67.4841   58.7888   49.1012 T4         2 LUT      0.093752
    210 H162       69.1528   59.3856   49.1066 T4         2 LUT      0.093752
    211 H161       68.4650   58.8465   50.5063 T4         2 LUT      0.093752
    212 HO3        66.3942   62.2678   52.7306 Q1         2 LUT      0.300121
    213 H8         69.6173   62.1612   47.5070 U7         2 LUT      0.080784
    214 H7         67.2375   60.6521   46.7789 U6         2 LUT      0.042190
    215 H42        64.8712   63.7017   50.0553 U5         2 LUT      0.145166
    216 H41        66.4035   63.8367   50.7383 U5         2 LUT      0.145166
    217 H35        76.5706   64.5398   42.3597 T3         2 LUT      0.077919
    218 H34        77.6570   63.0532   39.7514 T2         2 LUT      0.073626
    219 H32        79.7317   63.5051   38.7050 T1         2 LUT      0.092510
    220 H31        81.3672   65.6592   40.1249 U9         2 LUT      0.070048
    221 H30        81.7871   64.1308   37.4883 U8         2 LUT      0.085442
    222 H3         64.5562   61.4385   50.6878 U3         2 LUT     -0.031596
    223 H28        83.5528   64.3879   36.3274 U7         2 LUT      0.084728
    224 H27        85.2865   66.9553   36.3220 U6         2 LUT      0.087291
    225 H26        85.5049   64.4368   34.6611 Q6         2 LUT      0.075325
    226 H24        86.7354   66.5481   31.8660 Q5         2 LUT      0.094482
    227 H23        88.9955   66.0357   33.3666 U3         2 LUT     -0.024869
    228 H22        65.7901   59.9058   50.2246 U2         2 LUT      0.127376
    229 H21        66.5924   60.0268   51.7026 U2         2 LUT      0.127376
    230 H15        75.4229   62.2895   40.5705 T3         2 LUT      0.093200
    231 H14        74.4449   63.7249   43.1711 T2         2 LUT      0.068865
    232 H12        72.6045   63.2703   44.1255 T1         2 LUT      0.095507
    233 H11        70.6814   61.0527   42.9876 U9         2 LUT      0.068930
    234 H10        70.7594   62.7385   45.5833 U8         2 LUT      0.083911
    235 H1         89.2953   64.7389   31.6682 Q1         2 LUT      0.297311
@<TRIPOS>BOND
    1     6     1 1
    2     7     2 1
    3     8     3 1
    4     9     4 1
    5    11     4 1
    6    12     6 1
    7    13     9 1
    8    16     9 1
    9    25     5 1
   10    25    16 1
   11    26    10 1
   12    26    17 1
   13    27    18 1
   14    28    14 1
   15    28    19 1
   16    29    12 1
   17    30    13 1
   18    31    24 1
   19    32     1 1
   20    32    25 1
   21    33    21 1
   22    33    26 1
   23    34    22 1
   24    34    27 1
   25    35    23 1
   26    35    28 1
   27    36    12 1
   28    36    24 1
   29    37    13 1
   30    37    15 1
   31    38    31 1
   32    39    20 1
   33    39    32 1
   34    40     2 1
   35    40    33 1
   36    41     3 1
   37    41    34 1
   38    42     4 1
   39    42    35 1
   40    43    38 1
   41    44     5 1
   42    44    17 1
   43    44    39 1
   44    45    10 1
   45    45    18 1
   46    45    40 1
   47    46    19 1
   48    46    41 1
   49    47    14 1
   50    47    16 1
   51    47    42 1
   52    48    38 1
   53    49    48 1
   54    50    49 1
   55    51    50 1
   56    52    51 1
   57    53    51 1
   58    54    53 1
   59    55    54 1
   60    56    55 1
   61    57    56 1
   62    58    56 1
   63    59    58 1
   64    60    59 1
   65    61    60 1
   66    62    61 1
   67    63    61 1
   68    64    27 1
   69    64    46 1
   70    65     5 1
   71    65    10 1
   72    65    64 1
   73    65    14 1
   74    66    23 1
   75    67    23 1
   76    68    23 1
   77    69    22 1
   78    70    22 1
   79    71    22 1
   80    72    21 1
   81    73    21 1
   82    74    21 1
   83    75    20 1
   84    76    20 1
   85    77    20 1
   86    78    15 1
   87    79    15 1
   88    80    15 1
   89    81     8 1
   90    82     8 1
   91    83     8 1
   92    84     7 1
   93    85     7 1
   94    86     6 1
   95    87     6 1
   96    88     3 1
   97    89     3 1
   98    90     1 1
   99    91     1 1
  100    92    63 1
  101    93    63 1
  102    94    63 1
  103    95    62 1
  104    96    62 1
  105    97    62 1
  106    98    60 1
  107    99    60 1
  108   100    59 1
  109   101    59 1
  110   102    58 1
  111   103    58 1
  112   104    57 1
  113   105    57 1
  114   106    57 1
  115   107    55 1
  116   108    55 1
  117   109    54 1
  118   110    54 1
  119   111    53 1
  120   112    53 1
  121   113    19 1
  122   114    18 1
  123   115    17 1
  124   116     9 1
  125   117     2 1
  126   118    52 1
  127   119    52 1
  128   120    52 1
  129   121    51 1
  130   122    50 1
  131   123    50 1
  132   124    49 1
  133   125    49 1
  134   126    48 1
  135   127    48 1
  136   128    43 1
  137   129    43 1
  138   130    43 1
  139   131    39 1
  140   132    32 1
  141   133    31 1
  142   134    61 1
  143   135    56 1
  144   136    24 1
  145   137    24 1
  146   139   138 1
  147   140   139 1
  148   141   140 1
  149   142   140 1
  150   143   142 1
  151   144   138 1
  152   144   143 1
  153   145   144 1
  154   146   145 1
  155   147   146 1
  156   148   147 1
  157   149   148 1
  158   150   149 1
  159   151   150 1
  160   152   151 1
  161   153   152 1
  162   154   138 1
  163   155   138 1
  164   156   143 1
  165   157   147 1
  166   158   151 1
  167   160   159 1
  168   161   160 1
  169   162   161 1
  170   163   161 1
  171   164   163 1
  172   165   159 1
  173   165   164 1
  174   166   165 1
  175   167   166 1
  176   168   167 1
  177   169   168 1
  178   170   169 1
  179   171   170 1
  180   172   171 1
  181   173   172 1
  182   174   153 1
  183   174   173 1
  184   175   159 1
  185   176   159 1
  186   177   164 1
  187   178   168 1
  188   179   172 1
  189   180   179 1
  190   181   179 1
  191   182   179 1
  192   183   178 1
  193   184   178 1
  194   185   178 1
  195   186   177 1
  196   187   177 1
  197   188   177 1
  198   189   176 1
  199   190   176 1
  200   191   176 1
  201   192   175 1
  202   193   175 1
  203   194   175 1
  204   195   160 1
  205   196   160 1
  206   197   158 1
  207   198   158 1
  208   199   158 1
  209   200   157 1
  210   201   157 1
  211   202   157 1
  212   203   156 1
  213   204   156 1
  214   205   156 1
  215   206   155 1
  216   207   155 1
  217   208   155 1
  218   209   154 1
  219   210   154 1
  220   211   154 1
  221   212   141 1
  222   213   146 1
  223   214   145 1
  224   215   142 1
  225   216   142 1
  226   217   174 1
  227   218   173 1
  228   219   171 1
  229   220   170 1
  230   221   169 1
  231   222   140 1
  232   223   167 1
  233   224   166 1
  234   225   165 1
  235   226   163 1
  236   227   161 1
  237   228   139 1
  238   229   139 1
  239   230   153 1
  240   231   152 1
  241   232   150 1
  242   233   149 1
  243   234   148 1
  244   235   162 1
  245   65    153 1
  246   65    174 1
@<TRIPOS>SUBSTRUCTURE
      1 CLA               1 ****               0 ****  **** 
      2 LUT             138 ****               0 ****  **** 
