@<TRIPOS>MOLECULE
Cpptraj generated mol2 file.
  235   246     2     0     0
SMALL
USER_CHARGES


@<TRIPOS>ATOM
      1 CAA        77.6619   58.2728   34.7355 a2         1 CLA     -0.055900
      2 CAB        77.4416   62.1300   43.7616 c8         1 CLA     -0.148500
      3 CAC        70.7194   57.5635   43.4313 a2         1 CLA     -0.012600
      4 CAD        73.4053   55.8079   35.7712 ck         1 CLA      0.398800
      5 NA         76.4701   58.6459   38.1895 ns         1 CLA     -0.225500
      6 CBA        79.0900   58.3521   34.1074 a2         1 CLA     -0.135000
      7 CBB        77.1452   61.5502   44.9385 c0         1 CLA     -0.395200
      8 CBC        70.7531   56.0449   43.4818 a3         1 CLA     -0.037700
      9 CBD        74.9172   56.2890   35.5427 a1         1 CLA     -0.053900
     10 NB         76.3593   60.1048   40.7999 nm         1 CLA     -0.295700
     11 OBD        72.6169   55.2216   35.0038 o2         1 CLA     -0.494600
     12 CGA        79.7637   57.0327   33.9003 c4         1 CLA      0.827000
     13 CGD        75.8518   55.0414   35.3899 c4         1 CLA      0.655300
     14 ND         73.9026   57.4977   38.7856 nm         1 CLA     -0.291600
     15 CED        76.5188   53.0915   36.4729 a3         1 CLA      0.005400
     16 CHA        75.2482   57.1981   36.7637 cs         1 CLA     -0.123800
     17 CHB        78.0903   60.2418   39.1697 aa         1 CLA     -0.291900
     18 CHC        74.8725   60.3616   42.8024 aa         1 CLA     -0.090400
     19 CHD        72.0325   57.3603   40.3680 aa         1 CLA     -0.052000
     20 CMA        79.9331   58.4372   37.6940 a3         1 CLA     -0.230700
     21 CMB        79.4744   62.1401   41.2782 a3         1 CLA     -0.180800
     22 CMC        72.6891   59.8626   44.7990 a3         1 CLA     -0.134000
     23 CMD        70.8371   55.4858   38.0128 a3         1 CLA     -0.141100
     24 C1         80.7333   55.1114   35.1167 a2         1 CLA      0.023000
     25 C1A        76.4268   57.8461   37.0503 ac         1 CLA     -0.015100
     26 C1B        77.5436   60.6135   40.4038 cr         1 CLA      0.054700
     27 C1C        73.8911   59.4091   42.5420 cn         1 CLA     -0.005600
     28 C1D        72.6433   56.9809   39.1486 ap         1 CLA     -0.047300
     29 O1A        79.8125   56.4106   32.8832 o2         1 CLA     -0.610800
     30 O1D        76.6671   54.8875   34.4999 o2         1 CLA     -0.558200
     31 C2         81.4986   54.9237   36.4860 c8         1 CLA     -0.325100
     32 C2A        77.8093   57.9418   36.2363 a1         1 CLA      0.098600
     33 C2B        78.1796   61.4486   41.4501 cb         1 CLA      0.088500
     34 C2C        72.7613   59.1448   43.4332 cb         1 CLA      0.053700
     35 C2D        72.1447   56.1612   38.0759 cb         1 CLA      0.058900
     36 O2A        80.3164   56.5064   35.0235 o1         1 CLA     -0.437200
     37 O2D        75.5913   54.1753   36.4220 o1         1 CLA     -0.357600
     38 C3         82.5890   54.1457   36.6140 c5         1 CLA      0.031200
     39 C3A        78.6260   59.0160   37.0904 a1         1 CLA      0.166800
     40 C3B        77.2443   61.4747   42.4602 cb         1 CLA      0.035000
     41 C3C        71.9840   58.2204   42.8841 cb         1 CLA     -0.089900
     42 C3D        73.0994   56.2603   37.0890 cb         1 CLA     -0.035900
     43 C4         82.4754   52.6599   36.9865 a3         1 CLA     -0.053300
     44 C4A        77.6534   59.2923   38.2287 ac         1 CLA      0.001800
     45 C4B        76.0499   60.6827   42.0401 cn         1 CLA     -0.020900
     46 C4C        72.5178   58.1077   41.4389 cr         1 CLA     -0.044400
     47 C4D        74.1623   57.0393   37.5592 c6         1 CLA     -0.046000
     48 C5         83.9483   54.5492   36.2384 a2         1 CLA     -0.070400
     49 C6         84.2511   56.0393   36.4369 a2         1 CLA      0.043900
     50 C7         84.0424   56.5718   37.9518 a2         1 CLA     -0.150000
     51 C8         84.1695   58.1241   38.1372 a1         1 CLA      0.064200
     52 C9         85.4678   58.6638   37.3088 a3         1 CLA     -0.259300
     53 C10        84.2421   58.4824   39.6299 a2         1 CLA     -0.071900
     54 C11        83.1800   57.9098   40.6171 a2         1 CLA      0.014500
     55 C12        83.0717   58.6795   41.8692 a2         1 CLA     -0.112100
     56 C13        84.1364   58.3751   42.9163 a1         1 CLA      0.089200
     57 C14        84.1680   56.9434   43.5734 a3         1 CLA     -0.239100
     58 C15        84.1312   59.4518   44.0506 a2         1 CLA     -0.102200
     59 C16        82.7730   59.4251   44.7970 a2         1 CLA      0.023900
     60 C17        82.7639   60.5057   45.8912 a2         1 CLA     -0.105700
     61 C18        81.4096   60.6756   46.7035 a1         1 CLA      0.206800
     62 C19        81.5298   61.8825   47.6909 a3         1 CLA     -0.280100
     63 C20        80.0761   60.7443   45.9852 a3         1 CLA     -0.280100
     64 NC         73.7146   58.7342   41.3637 nx         1 CLA     -0.309200
     65 MG         75.0467   58.8824   39.6476 mg         1 CLA      0.895000
     66 HMD3       70.0773   56.0776   37.4577 dc         1 CLA      0.064300
     67 HMD2       70.9871   54.5684   37.4965 dc         1 CLA      0.064300
     68 HMD1       70.3788   55.2575   38.9949 dc         1 CLA      0.064300
     69 HMC3       71.6321   59.8018   45.1845 dc         1 CLA      0.052100
     70 HMC2       73.3513   59.2756   45.4628 dc         1 CLA      0.052100
     71 HMC1       72.9750   60.9372   44.7845 dc         1 CLA      0.052100
     72 HMB3       80.1052   61.7823   42.1165 dc         1 CLA      0.063600
     73 HMB2       80.0218   61.9284   40.3288 dc         1 CLA      0.063600
     74 HMB1       79.2915   63.2188   41.3388 dc         1 CLA      0.063600
     75 HMA3       80.6438   58.1960   36.8811 dc         1 CLA      0.058300
     76 HMA2       80.5020   59.0526   38.3713 dc         1 CLA      0.058300
     77 HMA1       79.6997   57.4742   38.1281 dc         1 CLA      0.058300
     78 HED3       76.2699   52.5333   37.3685 dc         1 CLA      0.079300
     79 HED2       76.4332   52.5591   35.5562 dc         1 CLA      0.079300
     80 HED1       77.4531   53.5063   36.6688 dc         1 CLA      0.079300
     81 HBC3       70.9073   55.5969   42.5032 dc         1 CLA      0.016300
     82 HBC2       71.5864   55.7618   44.0607 dc         1 CLA      0.016300
     83 HBC1       69.8154   55.7008   43.9422 dc         1 CLA      0.016300
     84 HBB2       77.1358   62.1023   45.9178 da         1 CLA      0.183000
     85 HBB1       76.8967   60.4894   44.9782 da         1 CLA      0.183000
     86 HBA2       78.9678   58.7333   33.1236 dc         1 CLA      0.029400
     87 HBA1       79.7926   58.9634   34.6644 dc         1 CLA      0.029400
     88 HAC2       70.5633   57.9628   44.4290 dc         1 CLA      0.029300
     89 HAC1       69.8620   57.8795   42.9074 dc         1 CLA      0.029300
     90 HAA2       77.0060   57.5359   34.2818 dc         1 CLA      0.028700
     91 HAA1       77.2162   59.2737   34.6501 dc         1 CLA      0.028700
     92 H203       79.2846   60.5449   46.6786 dc         1 CLA      0.065600
     93 H202       79.8883   61.7575   45.5502 dc         1 CLA      0.065600
     94 H201       79.9425   59.9885   45.2419 dc         1 CLA      0.065600
     95 H193       80.5941   61.8906   48.3556 dc         1 CLA      0.065600
     96 H192       82.4447   61.9543   48.3059 dc         1 CLA      0.065600
     97 H191       81.4993   62.7866   47.0625 dc         1 CLA      0.065600
     98 H172       83.4767   60.2425   46.5916 dc         1 CLA      0.027600
     99 H171       83.1126   61.5360   45.4630 dc         1 CLA      0.027600
    100 H162       82.0263   59.8609   44.1281 dc         1 CLA      0.002900
    101 H161       82.4022   58.6141   45.3133 dc         1 CLA      0.002900
    102 H152       84.9270   59.3435   44.8043 dc         1 CLA      0.029100
    103 H151       84.2800   60.4059   43.5241 dc         1 CLA      0.029100
    104 H143       84.6912   56.2632   42.8747 dc         1 CLA      0.063600
    105 H142       84.6036   56.8015   44.5737 dc         1 CLA      0.063600
    106 H141       83.1995   56.6069   43.5241 dc         1 CLA      0.063600
    107 H122       82.8895   59.7002   41.6575 dc         1 CLA      0.032500
    108 H121       82.0801   58.4471   42.3675 dc         1 CLA      0.032500
    109 H112       82.2277   58.0973   40.1117 dc         1 CLA      0.006600
    110 H111       83.3755   56.8459   40.8474 dc         1 CLA      0.006600
    111 H102       85.2621   58.3480   40.0037 dc         1 CLA      0.024100
    112 H101       84.0016   59.5499   39.6735 dc         1 CLA      0.024100
    113 HHD        71.0658   56.9184   40.5861 da         1 CLA      0.174300
    114 HHC        74.9361   60.8560   43.8056 da         1 CLA      0.136800
    115 HHB        78.9514   60.8464   38.9612 da         1 CLA      0.138300
    116 HBD        74.9874   56.9672   34.6891 dc         1 CLA      0.107700
    117 HAB        77.8407   63.1551   43.7301 da         1 CLA      0.155200
    118 H93        85.4572   58.4026   36.2454 dc         1 CLA      0.069500
    119 H92        85.5432   59.8019   37.4253 dc         1 CLA      0.069500
    120 H91        86.4209   58.2628   37.7626 dc         1 CLA      0.069500
    121 H8         83.2730   58.5759   37.6915 dc         1 CLA      0.029300
    122 H72        82.9729   56.2804   38.2759 dc         1 CLA      0.044400
    123 H71        84.9189   56.1818   38.5346 dc         1 CLA      0.044400
    124 H62        85.3098   56.1720   36.2653 dc         1 CLA      0.015600
    125 H61        83.6265   56.6210   35.7661 dc         1 CLA      0.015600
    126 H52        84.7401   54.0782   36.7168 dc         1 CLA      0.033200
    127 H51        83.8916   54.3389   35.1362 dc         1 CLA      0.033200
    128 H43        83.1988   52.2614   37.6950 dc         1 CLA      0.037000
    129 H42        81.4228   52.4687   37.4064 dc         1 CLA      0.037000
    130 H41        82.5803   52.0559   36.1037 dc         1 CLA      0.037000
    131 H3A        78.7983   59.9902   36.6733 dc         1 CLA      0.041100
    132 H2A        78.2609   56.9044   36.2442 dc         1 CLA      0.083100
    133 H2         81.1013   55.5022   37.2943 da         1 CLA      0.180900
    134 H18        81.3101   59.8486   47.4035 dc         1 CLA     -0.003900
    135 H13        85.1039   58.5337   42.4738 dc         1 CLA      0.019700
    136 H12        79.8322   54.4474   35.0810 dc         1 CLA      0.120400
    137 H11        81.3537   54.9613   34.2107 dc         1 CLA      0.120400
    138 C1         67.9805   61.3603   50.7018 Z1         2 LUT      0.509236
    139 C2         67.3838   61.9931   51.9007 Z2         2 LUT     -0.434695
    140 C3         65.9100   62.1839   51.8587 Z3         2 LUT      0.437453
    141 O3         65.4557   62.7654   53.0970 S1         2 LUT     -0.547129
    142 C4         65.5582   63.1465   50.7068 Z4         2 LUT     -0.468603
    143 C5         66.3917   62.8664   49.4693 Z5         2 LUT      0.279246
    144 C6         67.3937   61.9963   49.4583 Z6         2 LUT     -0.305473
    145 C7         68.0824   61.6530   48.1727 Z7         2 LUT      0.069402
    146 C8         68.7718   62.5022   47.3835 Z8         2 LUT     -0.191631
    147 C9         69.3157   62.2018   45.9629 Z9         2 LUT      0.196698
    148 C10        70.2158   63.0474   45.3114 Y1         2 LUT     -0.208611
    149 C11        70.9604   62.7403   44.0391 Y2         2 LUT      0.030784
    150 C12        71.9624   63.5400   43.5882 Y3         2 LUT     -0.220316
    151 C13        72.8347   63.2177   42.3896 Y4         2 LUT      0.215937
    152 C14        73.9338   64.0859   42.3800 Y5         2 LUT     -0.185793
    153 C15        75.0195   64.0521   41.4127 Y6         2 LUT     -0.057835
    154 C16        67.7430   59.7983   50.6737 Y7         2 LUT     -0.405615
    155 C17        69.5063   61.4387   50.9200 Y7         2 LUT     -0.405615
    156 C18        66.0530   63.8401   48.3055 Y9         2 LUT     -0.369639
    157 C19        68.9767   60.8556   45.4274 W1         2 LUT     -0.333362
    158 C20        72.5196   62.3407   41.2464 W2         2 LUT     -0.323439
    159 C21        86.5199   65.5427   35.5573 Z1         2 LUT      0.406104
    160 C22        87.3440   65.1293   34.3747 Z2         2 LUT     -0.404965
    161 C23        87.3059   66.0741   33.2008 Z3         2 LUT      0.391255
    162 O23        87.5361   65.1922   32.0944 S1         2 LUT     -0.528210
    163 C24        85.9901   66.7638   33.0521 W6         2 LUT     -0.258361
    164 C25        84.9231   66.6674   33.8714 Z5         2 LUT      0.133546
    165 C26        85.0552   65.8472   35.1037 W8         2 LUT     -0.147008
    166 C27        84.1815   66.4498   36.1688 Z7         2 LUT      0.023843
    167 C28        83.0588   66.0816   36.8326 Z8         2 LUT     -0.216987
    168 C29        82.4290   66.7338   38.0081 Z9         2 LUT      0.206524
    169 C30        81.3335   66.0289   38.5124 Y1         2 LUT     -0.215556
    170 C31        80.5473   66.2507   39.6632 Y2         2 LUT      0.025142
    171 C32        79.3169   65.5953   39.7960 Y3         2 LUT     -0.212209
    172 C33        78.3163   65.7889   40.8143 Y4         2 LUT      0.240937
    173 C34        77.3007   64.8843   40.7913 Y5         2 LUT     -0.218862
    174 C35        76.1274   64.8842   41.6118 Y6         2 LUT     -0.023547
    175 C36        87.2686   66.7260   36.2134 Y7         2 LUT     -0.393485
    176 C37        86.5969   64.4715   36.6563 Y7         2 LUT     -0.393485
    177 C38        83.6518   67.3683   33.5463 Y9         2 LUT     -0.387526
    178 C39        83.0349   67.9866   38.6208 W1         2 LUT     -0.322618
    179 C40        78.6602   66.7235   41.9139 W2         2 LUT     -0.358472
    180 H403       79.7030   66.8190   42.2592 R7         2 LUT      0.097720
    181 H402       78.4018   67.6896   41.6038 R7         2 LUT      0.097720
    182 H401       78.2219   66.4621   42.8689 R7         2 LUT      0.097720
    183 H393       82.6175   68.4324   39.4803 R4         2 LUT      0.082505
    184 H392       83.9983   67.7589   39.0953 R4         2 LUT      0.082505
    185 H391       83.1364   68.7386   37.8461 R4         2 LUT      0.082505
    186 H383       83.7718   67.9872   32.6776 R1         2 LUT      0.104030
    187 H382       82.8556   66.6473   33.3518 R1         2 LUT      0.104030
    188 H381       83.3500   67.9233   34.4285 R1         2 LUT      0.104030
    189 H373       85.8410   64.8026   37.3732 T4         2 LUT      0.089537
    190 H372       86.1346   63.5950   36.1953 T4         2 LUT      0.089537
    191 H371       87.6105   64.2377   37.0549 T4         2 LUT      0.089537
    192 H363       88.2452   66.5044   36.6798 T4         2 LUT      0.089537
    193 H362       87.4820   67.3940   35.4515 T4         2 LUT      0.089537
    194 H361       86.7001   67.2976   36.9325 T4         2 LUT      0.089537
    195 H222       88.3739   65.0409   34.7202 U2         2 LUT      0.127376
    196 H221       86.9682   64.2114   34.1609 U2         2 LUT      0.127376
    197 H203       71.6914   61.6754   41.4624 R7         2 LUT      0.087068
    198 H202       72.2404   62.8960   40.3264 R7         2 LUT      0.087068
    199 H201       73.3910   61.7370   40.9161 R7         2 LUT      0.087068
    200 H193       69.4968   59.9802   45.9129 R4         2 LUT      0.089716
    201 H192       67.8909   60.6216   45.5104 R4         2 LUT      0.089716
    202 H191       69.0793   60.8463   44.2783 R4         2 LUT      0.089716
    203 H183       66.7716   64.6162   48.4228 R1         2 LUT      0.094572
    204 H182       66.2175   63.3386   47.3124 R1         2 LUT      0.094572
    205 H181       65.0447   64.2711   48.4181 R1         2 LUT      0.094572
    206 H173       69.7499   61.2088   51.9116 T4         2 LUT      0.093752
    207 H172       70.1153   60.9475   50.1729 T4         2 LUT      0.093752
    208 H171       69.8045   62.4692   50.7111 T4         2 LUT      0.093752
    209 H163       67.8356   59.3754   51.6671 T4         2 LUT      0.093752
    210 H162       66.7641   59.4810   50.2137 T4         2 LUT      0.093752
    211 H161       68.4593   59.2859   49.9995 T4         2 LUT      0.093752
    212 HO3        65.4069   62.1129   53.8237 Q1         2 LUT      0.300121
    213 H8         68.9336   63.5581   47.6031 U7         2 LUT      0.080784
    214 H7         68.1121   60.5374   47.9147 U6         2 LUT      0.042190
    215 H42        64.4898   63.0470   50.4958 U5         2 LUT      0.145166
    216 H41        65.8187   64.1865   51.0300 U5         2 LUT      0.145166
    217 H35        76.1924   65.5022   42.5354 T3         2 LUT      0.077919
    218 H34        77.3386   64.0355   40.1155 T2         2 LUT      0.073626
    219 H32        79.0704   64.8086   39.1027 T1         2 LUT      0.092510
    220 H31        80.7232   67.1189   40.3530 U9         2 LUT      0.070048
    221 H30        81.0974   65.0852   37.8787 U8         2 LUT      0.085442
    222 H3         65.4086   61.1538   51.6695 U3         2 LUT     -0.031596
    223 H28        82.6260   65.1454   36.4438 U7         2 LUT      0.084728
    224 H27        84.6289   67.3596   36.6007 U6         2 LUT      0.087291
    225 H26        84.6823   64.8585   34.8509 Q6         2 LUT      0.075325
    226 H24        86.0333   67.3903   32.0742 Q5         2 LUT      0.094482
    227 H23        88.0842   66.8904   33.2106 U3         2 LUT     -0.024869
    228 H22        67.4827   61.3042   52.7848 U2         2 LUT      0.127376
    229 H21        67.8558   62.9442   52.0572 U2         2 LUT      0.127376
    230 H15        74.9644   63.3840   40.4839 T3         2 LUT      0.093200
    231 H14        74.1019   64.7994   43.1809 T2         2 LUT      0.068865
    232 H12        72.1820   64.3988   44.1608 T1         2 LUT      0.095507
    233 H11        70.8413   61.7959   43.6420 U9         2 LUT      0.068930
    234 H10        70.4046   64.0565   45.7603 U8         2 LUT      0.083911
    235 H1         87.7750   65.6853   31.2993 Q1         2 LUT      0.297311
@<TRIPOS>BOND
    1     6     1 1
    2     7     2 1
    3     8     3 1
    4     9     4 1
    5    11     4 1
    6    12     6 1
    7    13     9 1
    8    16     9 1
    9    25     5 1
   10    25    16 1
   11    26    10 1
   12    26    17 1
   13    27    18 1
   14    28    14 1
   15    28    19 1
   16    29    12 1
   17    30    13 1
   18    31    24 1
   19    32     1 1
   20    32    25 1
   21    33    21 1
   22    33    26 1
   23    34    22 1
   24    34    27 1
   25    35    23 1
   26    35    28 1
   27    36    12 1
   28    36    24 1
   29    37    13 1
   30    37    15 1
   31    38    31 1
   32    39    20 1
   33    39    32 1
   34    40     2 1
   35    40    33 1
   36    41     3 1
   37    41    34 1
   38    42     4 1
   39    42    35 1
   40    43    38 1
   41    44     5 1
   42    44    17 1
   43    44    39 1
   44    45    10 1
   45    45    18 1
   46    45    40 1
   47    46    19 1
   48    46    41 1
   49    47    14 1
   50    47    16 1
   51    47    42 1
   52    48    38 1
   53    49    48 1
   54    50    49 1
   55    51    50 1
   56    52    51 1
   57    53    51 1
   58    54    53 1
   59    55    54 1
   60    56    55 1
   61    57    56 1
   62    58    56 1
   63    59    58 1
   64    60    59 1
   65    61    60 1
   66    62    61 1
   67    63    61 1
   68    64    27 1
   69    64    46 1
   70    65     5 1
   71    65    10 1
   72    65    64 1
   73    65    14 1
   74    66    23 1
   75    67    23 1
   76    68    23 1
   77    69    22 1
   78    70    22 1
   79    71    22 1
   80    72    21 1
   81    73    21 1
   82    74    21 1
   83    75    20 1
   84    76    20 1
   85    77    20 1
   86    78    15 1
   87    79    15 1
   88    80    15 1
   89    81     8 1
   90    82     8 1
   91    83     8 1
   92    84     7 1
   93    85     7 1
   94    86     6 1
   95    87     6 1
   96    88     3 1
   97    89     3 1
   98    90     1 1
   99    91     1 1
  100    92    63 1
  101    93    63 1
  102    94    63 1
  103    95    62 1
  104    96    62 1
  105    97    62 1
  106    98    60 1
  107    99    60 1
  108   100    59 1
  109   101    59 1
  110   102    58 1
  111   103    58 1
  112   104    57 1
  113   105    57 1
  114   106    57 1
  115   107    55 1
  116   108    55 1
  117   109    54 1
  118   110    54 1
  119   111    53 1
  120   112    53 1
  121   113    19 1
  122   114    18 1
  123   115    17 1
  124   116     9 1
  125   117     2 1
  126   118    52 1
  127   119    52 1
  128   120    52 1
  129   121    51 1
  130   122    50 1
  131   123    50 1
  132   124    49 1
  133   125    49 1
  134   126    48 1
  135   127    48 1
  136   128    43 1
  137   129    43 1
  138   130    43 1
  139   131    39 1
  140   132    32 1
  141   133    31 1
  142   134    61 1
  143   135    56 1
  144   136    24 1
  145   137    24 1
  146   139   138 1
  147   140   139 1
  148   141   140 1
  149   142   140 1
  150   143   142 1
  151   144   138 1
  152   144   143 1
  153   145   144 1
  154   146   145 1
  155   147   146 1
  156   148   147 1
  157   149   148 1
  158   150   149 1
  159   151   150 1
  160   152   151 1
  161   153   152 1
  162   154   138 1
  163   155   138 1
  164   156   143 1
  165   157   147 1
  166   158   151 1
  167   160   159 1
  168   161   160 1
  169   162   161 1
  170   163   161 1
  171   164   163 1
  172   165   159 1
  173   165   164 1
  174   166   165 1
  175   167   166 1
  176   168   167 1
  177   169   168 1
  178   170   169 1
  179   171   170 1
  180   172   171 1
  181   173   172 1
  182   174   153 1
  183   174   173 1
  184   175   159 1
  185   176   159 1
  186   177   164 1
  187   178   168 1
  188   179   172 1
  189   180   179 1
  190   181   179 1
  191   182   179 1
  192   183   178 1
  193   184   178 1
  194   185   178 1
  195   186   177 1
  196   187   177 1
  197   188   177 1
  198   189   176 1
  199   190   176 1
  200   191   176 1
  201   192   175 1
  202   193   175 1
  203   194   175 1
  204   195   160 1
  205   196   160 1
  206   197   158 1
  207   198   158 1
  208   199   158 1
  209   200   157 1
  210   201   157 1
  211   202   157 1
  212   203   156 1
  213   204   156 1
  214   205   156 1
  215   206   155 1
  216   207   155 1
  217   208   155 1
  218   209   154 1
  219   210   154 1
  220   211   154 1
  221   212   141 1
  222   213   146 1
  223   214   145 1
  224   215   142 1
  225   216   142 1
  226   217   174 1
  227   218   173 1
  228   219   171 1
  229   220   170 1
  230   221   169 1
  231   222   140 1
  232   223   167 1
  233   224   166 1
  234   225   165 1
  235   226   163 1
  236   227   161 1
  237   228   139 1
  238   229   139 1
  239   230   153 1
  240   231   152 1
  241   232   150 1
  242   233   149 1
  243   234   148 1
  244   235   162 1
  245   65    153 1
  246   65    174 1
@<TRIPOS>SUBSTRUCTURE
      1 CLA               1 ****               0 ****  **** 
      2 LUT             138 ****               0 ****  **** 
