@<TRIPOS>MOLECULE
Cpptraj generated mol2 file.
  235   246     2     0     0
SMALL
USER_CHARGES


@<TRIPOS>ATOM
      1 CAA        80.2017   58.0487   35.0469 a2         1 CLA     -0.055900
      2 CAB        80.0516   62.5521   43.5341 c8         1 CLA     -0.148500
      3 CAC        73.2832   58.3223   43.6973 a2         1 CLA     -0.012600
      4 CAD        75.8845   55.5086   36.2272 ck         1 CLA      0.398800
      5 NA         79.1517   58.6195   38.3710 ns         1 CLA     -0.225500
      6 CBA        81.4275   57.8783   34.1706 a2         1 CLA     -0.135000
      7 CBB        81.2131   62.6362   44.2204 c0         1 CLA     -0.395200
      8 CBC        73.6090   56.9480   44.2946 a3         1 CLA     -0.037700
      9 CBD        77.4384   55.9564   35.8685 a1         1 CLA     -0.053900
     10 NB         79.0338   60.4080   40.7719 nm         1 CLA     -0.295700
     11 OBD        75.2889   54.7412   35.4957 o2         1 CLA     -0.494600
     12 CGA        81.7481   56.4680   33.8505 c4         1 CLA      0.827000
     13 CGD        78.3164   54.7698   35.9063 c4         1 CLA      0.655300
     14 ND         76.3096   57.7847   38.8590 nm         1 CLA     -0.291600
     15 CED        78.7080   52.6054   36.9027 a3         1 CLA      0.005400
     16 CHA        77.8159   57.0041   36.9977 cs         1 CLA     -0.123800
     17 CHB        80.8488   60.1904   39.1903 aa         1 CLA     -0.291900
     18 CHC        77.5576   60.8688   42.7769 aa         1 CLA     -0.090400
     19 CHD        74.4460   57.8784   40.5321 aa         1 CLA     -0.052000
     20 CMA        82.4932   57.7490   38.0202 a3         1 CLA     -0.230700
     21 CMB        82.1746   62.3339   41.0576 a3         1 CLA     -0.180800
     22 CMC        75.5300   60.2564   45.0276 a3         1 CLA     -0.134000
     23 CMD        73.0438   55.8871   38.2758 a3         1 CLA     -0.141100
     24 C1         82.7511   54.5651   34.8002 a2         1 CLA      0.023000
     25 C1A        79.0206   57.7074   37.3162 ac         1 CLA     -0.015100
     26 C1B        80.2414   60.8144   40.2939 cr         1 CLA      0.054700
     27 C1C        76.4012   60.1337   42.4990 cn         1 CLA     -0.005600
     28 C1D        74.9932   57.4555   39.2431 ap         1 CLA     -0.047300
     29 O1A        81.1889   55.7999   32.9950 o2         1 CLA     -0.610800
     30 O1D        79.2103   54.5582   35.1119 o2         1 CLA     -0.558200
     31 C2         83.7590   54.2188   35.9918 c8         1 CLA     -0.325100
     32 C2A        80.2961   57.5693   36.5054 a1         1 CLA      0.098600
     33 C2B        80.8506   61.7257   41.2450 cb         1 CLA      0.088500
     34 C2C        75.3108   59.9416   43.5438 cb         1 CLA      0.053700
     35 C2D        74.4367   56.5333   38.2156 cb         1 CLA      0.058900
     36 O2A        82.6346   55.9996   34.8083 o1         1 CLA     -0.437200
     37 O2D        77.9911   53.9307   36.9451 o1         1 CLA     -0.357600
     38 C3         84.9629   53.6913   35.7198 c5         1 CLA      0.031200
     39 C3A        81.3139   58.4683   37.3205 a1         1 CLA      0.166800
     40 C3B        79.9219   61.7742   42.2988 cb         1 CLA      0.035000
     41 C3C        74.4011   58.9668   42.9212 cb         1 CLA     -0.089900
     42 C3D        75.5114   56.2607   37.3760 cb         1 CLA     -0.035900
     43 C4         85.1421   52.1569   35.5893 a3         1 CLA     -0.053300
     44 C4A        80.4163   59.1465   38.4300 ac         1 CLA      0.001800
     45 C4B        78.7363   61.0399   41.9419 cn         1 CLA     -0.020900
     46 C4C        74.9580   58.7155   41.5730 cr         1 CLA     -0.044400
     47 C4D        76.6402   57.0607   37.7673 c6         1 CLA     -0.046000
     48 C5         86.0500   54.6796   35.4506 a2         1 CLA     -0.070400
     49 C6         86.1737   55.8714   36.3510 a2         1 CLA      0.043900
     50 C7         86.7012   55.5030   37.6798 a2         1 CLA     -0.150000
     51 C8         86.7308   56.6089   38.7847 a1         1 CLA      0.064200
     52 C9         87.6327   57.8465   38.3088 a3         1 CLA     -0.259300
     53 C10        87.2054   56.0638   40.1912 a2         1 CLA     -0.071900
     54 C11        87.1363   57.0412   41.3837 a2         1 CLA      0.014500
     55 C12        87.3013   56.4325   42.7862 a2         1 CLA     -0.112100
     56 C13        86.9238   57.2029   44.0878 a1         1 CLA      0.089200
     57 C14        87.7607   58.5520   44.2295 a3         1 CLA     -0.239100
     58 C15        87.0431   56.3018   45.3443 a2         1 CLA     -0.102200
     59 C16        86.4458   56.9464   46.6348 a2         1 CLA      0.023900
     60 C17        86.8950   56.0914   47.8366 a2         1 CLA     -0.105700
     61 C18        86.5711   56.6566   49.1990 a1         1 CLA      0.206800
     62 C19        85.1753   57.2202   49.3803 a3         1 CLA     -0.280100
     63 C20        86.7899   55.6705   50.3283 a3         1 CLA     -0.280100
     64 NC         76.1294   59.3636   41.4301 nx         1 CLA     -0.309200
     65 MG         77.5560   59.1400   39.8007 mg         1 CLA      0.895000
     66 HMD3       72.9260   55.4109   39.2883 dc         1 CLA      0.064300
     67 HMD2       72.3450   56.7676   38.2000 dc         1 CLA      0.064300
     68 HMD1       72.9193   55.1057   37.4916 dc         1 CLA      0.064300
     69 HMC3       76.1910   59.5619   45.4936 dc         1 CLA      0.052100
     70 HMC2       75.8170   61.3054   45.1139 dc         1 CLA      0.052100
     71 HMC1       74.5279   60.1474   45.5217 dc         1 CLA      0.052100
     72 HMB3       82.3277   62.6411   40.0498 dc         1 CLA      0.063600
     73 HMB2       82.4002   63.1298   41.7190 dc         1 CLA      0.063600
     74 HMB1       82.9100   61.5692   41.2899 dc         1 CLA      0.063600
     75 HMA3       82.9652   57.1477   37.3045 dc         1 CLA      0.058300
     76 HMA2       83.1033   58.4587   38.5709 dc         1 CLA      0.058300
     77 HMA1       82.1663   57.0241   38.8273 dc         1 CLA      0.058300
     78 HED3       79.7797   52.5840   37.1417 dc         1 CLA      0.079300
     79 HED2       78.2296   52.1497   37.7660 dc         1 CLA      0.079300
     80 HED1       78.4490   52.0417   35.9678 dc         1 CLA      0.079300
     81 HBC3       72.6711   56.4515   44.5804 dc         1 CLA      0.016300
     82 HBC2       74.2579   56.3797   43.6003 dc         1 CLA      0.016300
     83 HBC1       74.1079   57.1045   45.2423 dc         1 CLA      0.016300
     84 HBB2       81.3841   63.1920   45.1772 da         1 CLA      0.183000
     85 HBB1       82.0523   62.0745   43.7497 da         1 CLA      0.183000
     86 HBA2       81.3514   58.4958   33.2930 dc         1 CLA      0.029400
     87 HBA1       82.3098   58.2974   34.6990 dc         1 CLA      0.029400
     88 HAC2       73.0222   58.9290   44.5021 dc         1 CLA      0.029300
     89 HAC1       72.5016   58.1522   43.0723 dc         1 CLA      0.029300
     90 HAA2       79.4429   57.5999   34.5678 dc         1 CLA      0.028700
     91 HAA1       79.9886   59.1461   34.9933 dc         1 CLA      0.028700
     92 H203       87.7837   55.3488   50.3381 dc         1 CLA      0.065600
     93 H202       86.5688   56.0451   51.3582 dc         1 CLA      0.065600
     94 H201       86.2337   54.7880   50.1960 dc         1 CLA      0.065600
     95 H193       84.9260   57.9035   48.5605 dc         1 CLA      0.065600
     96 H192       84.3743   56.4232   49.3383 dc         1 CLA      0.065600
     97 H191       85.1184   57.8288   50.3491 dc         1 CLA      0.065600
     98 H172       86.2778   55.1822   47.8289 dc         1 CLA      0.027600
     99 H171       87.9594   55.8986   47.7483 dc         1 CLA      0.027600
    100 H162       86.9217   57.9362   46.7323 dc         1 CLA      0.002900
    101 H161       85.3569   56.9312   46.5106 dc         1 CLA      0.002900
    102 H152       86.5256   55.3138   45.1329 dc         1 CLA      0.029100
    103 H151       88.1289   56.1174   45.5202 dc         1 CLA      0.029100
    104 H143       88.6920   58.2842   44.6394 dc         1 CLA      0.063600
    105 H142       87.9444   59.0919   43.3333 dc         1 CLA      0.063600
    106 H141       87.2994   59.1605   44.9799 dc         1 CLA      0.063600
    107 H122       86.6988   55.5246   42.8533 dc         1 CLA      0.032500
    108 H121       88.3363   56.0890   42.8210 dc         1 CLA      0.032500
    109 H112       88.0325   57.7761   41.3441 dc         1 CLA      0.006600
    110 H111       86.1824   57.5558   41.4248 dc         1 CLA      0.006600
    111 H102       86.5891   55.1493   40.3664 dc         1 CLA      0.024100
    112 H101       88.1723   55.5726   40.0318 dc         1 CLA      0.024100
    113 HHD        73.4243   57.4536   40.8028 da         1 CLA      0.174300
    114 HHC        77.4581   61.5192   43.5976 da         1 CLA      0.136800
    115 HHB        81.8702   60.5240   38.9324 da         1 CLA      0.138300
    116 HBD        77.4311   56.2839   34.8351 dc         1 CLA      0.107700
    117 HAB        79.2537   63.1067   43.9452 da         1 CLA      0.155200
    118 H93        87.3017   58.1339   37.3384 dc         1 CLA      0.069500
    119 H92        87.5142   58.7485   38.9965 dc         1 CLA      0.069500
    120 H91        88.6636   57.6271   38.2756 dc         1 CLA      0.069500
    121 H8         85.7738   57.0459   38.8328 dc         1 CLA      0.029300
    122 H72        86.0610   54.6488   37.9951 dc         1 CLA      0.044400
    123 H71        87.7599   55.2635   37.4970 dc         1 CLA      0.044400
    124 H62        86.9662   56.4668   35.8465 dc         1 CLA      0.015600
    125 H61        85.2246   56.3808   36.3332 dc         1 CLA      0.015600
    126 H52        87.0984   54.2234   35.3042 dc         1 CLA      0.033200
    127 H51        85.7169   55.0602   34.5134 dc         1 CLA      0.033200
    128 H43        84.1695   51.6642   35.7149 dc         1 CLA      0.037000
    129 H42        85.4605   52.0386   34.5405 dc         1 CLA      0.037000
    130 H41        85.7919   51.7811   36.3420 dc         1 CLA      0.037000
    131 H3A        81.7298   59.2855   36.6694 dc         1 CLA      0.041100
    132 H2A        80.7204   56.5990   36.4636 dc         1 CLA      0.083100
    133 H2         83.5004   54.3819   37.1035 da         1 CLA      0.180900
    134 H18        87.3421   57.4274   49.3022 dc         1 CLA     -0.003900
    135 H13        85.9023   57.4427   43.9680 dc         1 CLA      0.019700
    136 H12        81.7642   54.0595   35.0597 dc         1 CLA      0.120400
    137 H11        83.1719   54.1616   33.8806 dc         1 CLA      0.120400
    138 C1         69.6014   62.1518   50.1702 Z1         2 LUT      0.509236
    139 C2         68.3275   61.6770   50.8821 Z2         2 LUT     -0.434695
    140 C3         67.1152   62.6208   51.0676 Z3         2 LUT      0.437453
    141 O3         66.8259   62.9656   52.4206 S1         2 LUT     -0.547129
    142 C4         67.2317   63.9035   50.1148 Z4         2 LUT     -0.468603
    143 C5         68.1252   63.6580   48.8653 Z5         2 LUT      0.279246
    144 C6         69.1857   62.8397   48.8696 Z6         2 LUT     -0.305473
    145 C7         69.7905   62.2497   47.6281 Z7         2 LUT      0.069402
    146 C8         70.9729   62.5600   46.9828 Z8         2 LUT     -0.191631
    147 C9         71.5347   62.0173   45.6908 Z9         2 LUT      0.196698
    148 C10        72.5862   62.7502   45.1302 Y1         2 LUT     -0.208611
    149 C11        73.2767   62.5331   43.8955 Y2         2 LUT      0.030784
    150 C12        74.2871   63.3364   43.4884 Y3         2 LUT     -0.220316
    151 C13        75.0428   63.2635   42.2352 Y4         2 LUT      0.215937
    152 C14        76.2014   64.0788   42.0689 Y5         2 LUT     -0.185793
    153 C15        77.2463   64.1881   41.0326 Y6         2 LUT     -0.057835
    154 C16        70.7016   61.1018   50.1357 Y7         2 LUT     -0.405615
    155 C17        70.0174   63.0306   51.3073 Y7         2 LUT     -0.405615
    156 C18        67.4185   64.1844   47.6140 Y9         2 LUT     -0.369639
    157 C19        70.8213   60.8348   45.0822 W1         2 LUT     -0.333362
    158 C20        74.4396   62.5175   41.0762 W2         2 LUT     -0.323439
    159 C21        89.0314   65.8870   35.5655 Z1         2 LUT      0.406104
    160 C22        89.7687   65.1834   34.4186 Z2         2 LUT     -0.404965
    161 C23        89.9491   65.9989   33.1124 Z3         2 LUT      0.391255
    162 O23        90.3104   65.0765   32.0908 S1         2 LUT     -0.528210
    163 C24        88.6131   66.6572   32.8048 W6         2 LUT     -0.258361
    164 C25        87.5761   66.8885   33.5847 Z5         2 LUT      0.133546
    165 C26        87.6109   66.2363   35.0321 W8         2 LUT     -0.147008
    166 C27        86.6768   66.9346   35.9853 Z7         2 LUT      0.023843
    167 C28        85.6212   66.4409   36.6983 Z8         2 LUT     -0.216987
    168 C29        84.8364   66.9929   37.7725 Z9         2 LUT      0.206524
    169 C30        83.7944   66.2989   38.2897 Y1         2 LUT     -0.215556
    170 C31        83.0175   66.3074   39.5150 Y2         2 LUT      0.025142
    171 C32        81.8698   65.5354   39.7406 Y3         2 LUT     -0.212209
    172 C33        80.7823   65.6819   40.7677 Y4         2 LUT      0.240937
    173 C34        79.6176   64.9449   40.6183 Y5         2 LUT     -0.218862
    174 C35        78.4159   64.8380   41.4516 Y6         2 LUT     -0.023547
    175 C36        89.8973   67.0742   35.9501 Y7         2 LUT     -0.393485
    176 C37        88.9747   64.9255   36.7860 Y7         2 LUT     -0.393485
    177 C38        86.3903   67.6558   33.0384 Y9         2 LUT     -0.387526
    178 C39        85.3684   68.2145   38.5122 W1         2 LUT     -0.322618
    179 C40        81.0283   66.4411   42.0514 W2         2 LUT     -0.358472
    180 H403       80.5718   65.9854   42.9274 R7         2 LUT      0.097720
    181 H402       82.0355   66.6260   42.2041 R7         2 LUT      0.097720
    182 H401       80.4835   67.4041   41.9939 R7         2 LUT      0.097720
    183 H393       85.4289   69.1579   37.9352 R4         2 LUT      0.082505
    184 H392       84.7879   68.5954   39.3069 R4         2 LUT      0.082505
    185 H391       86.3838   68.0767   38.9071 R4         2 LUT      0.082505
    186 H383       85.6311   67.0691   32.5046 R1         2 LUT      0.104030
    187 H382       85.8896   68.2150   33.8492 R1         2 LUT      0.104030
    188 H381       86.6980   68.3631   32.2401 R1         2 LUT      0.104030
    189 H373       89.8821   64.5613   37.2639 T4         2 LUT      0.089537
    190 H372       88.3447   65.4675   37.5203 T4         2 LUT      0.089537
    191 H371       88.4371   64.0605   36.4575 T4         2 LUT      0.089537
    192 H363       90.8992   66.8471   36.3355 T4         2 LUT      0.089537
    193 H362       90.0368   67.7843   35.1878 T4         2 LUT      0.089537
    194 H361       89.5720   67.5729   36.8590 T4         2 LUT      0.089537
    195 H222       90.7576   64.8157   34.8003 U2         2 LUT      0.127376
    196 H221       89.2166   64.2545   34.1765 U2         2 LUT      0.127376
    197 H203       73.3393   62.6957   40.9499 R7         2 LUT      0.087068
    198 H202       75.0181   62.5708   40.0994 R7         2 LUT      0.087068
    199 H201       74.4505   61.4526   41.2432 R7         2 LUT      0.087068
    200 H193       69.7508   60.9770   44.9360 R4         2 LUT      0.089716
    201 H192       71.1496   60.7033   44.0800 R4         2 LUT      0.089716
    202 H191       71.0218   59.8870   45.5305 R4         2 LUT      0.089716
    203 H183       66.6070   64.9547   47.8829 R1         2 LUT      0.094572
    204 H182       68.1940   64.5732   46.8910 R1         2 LUT      0.094572
    205 H181       67.0605   63.3338   47.0308 R1         2 LUT      0.094572
    206 H173       69.3291   63.7668   51.6784 T4         2 LUT      0.093752
    207 H172       70.3454   62.4413   52.1973 T4         2 LUT      0.093752
    208 H171       70.9004   63.5970   51.1216 T4         2 LUT      0.093752
    209 H163       70.9081   60.6287   51.0750 T4         2 LUT      0.093752
    210 H162       70.5754   60.2824   49.3402 T4         2 LUT      0.093752
    211 H161       71.5860   61.6113   49.8275 T4         2 LUT      0.093752
    212 HO3        66.7492   62.2131   53.0224 Q1         2 LUT      0.300121
    213 H8         71.4261   63.4209   47.4417 U7         2 LUT      0.080784
    214 H7         69.2700   61.5085   47.1402 U6         2 LUT      0.042190
    215 H42        66.1717   64.2086   49.7997 U5         2 LUT      0.145166
    216 H41        67.5639   64.8655   50.6396 U5         2 LUT      0.145166
    217 H35        78.4462   65.3562   42.4410 T3         2 LUT      0.077919
    218 H34        79.5572   64.2927   39.7476 T2         2 LUT      0.073626
    219 H32        81.5203   64.8619   38.9713 T1         2 LUT      0.092510
    220 H31        83.1661   67.0928   40.2958 U9         2 LUT      0.070048
    221 H30        83.4720   65.4003   37.6454 U8         2 LUT      0.085442
    222 H3         66.2861   62.0228   50.6786 U3         2 LUT     -0.031596
    223 H28        85.2941   65.5748   36.1966 U7         2 LUT      0.084728
    224 H27        87.0514   67.9272   36.3045 U6         2 LUT      0.087291
    225 H26        87.1847   65.2259   34.9334 Q6         2 LUT      0.075325
    226 H24        88.6215   66.9277   31.8039 Q5         2 LUT      0.094482
    227 H23        90.7048   66.8065   33.3674 U3         2 LUT     -0.024869
    228 H22        67.9066   61.0266   50.1128 U2         2 LUT      0.127376
    229 H21        68.5901   61.0909   51.7377 U2         2 LUT      0.127376
    230 H15        77.1996   63.6725   40.1291 T3         2 LUT      0.093200
    231 H14        76.5549   64.4071   43.0429 T2         2 LUT      0.068865
    232 H12        74.5641   64.1211   44.0748 T1         2 LUT      0.095507
    233 H11        73.0421   61.7366   43.2413 U9         2 LUT      0.068930
    234 H10        72.8297   63.5752   45.6625 U8         2 LUT      0.083911
    235 H1         90.8812   65.4562   31.3914 Q1         2 LUT      0.297311
@<TRIPOS>BOND
    1     6     1 1
    2     7     2 1
    3     8     3 1
    4     9     4 1
    5    11     4 1
    6    12     6 1
    7    13     9 1
    8    16     9 1
    9    25     5 1
   10    25    16 1
   11    26    10 1
   12    26    17 1
   13    27    18 1
   14    28    14 1
   15    28    19 1
   16    29    12 1
   17    30    13 1
   18    31    24 1
   19    32     1 1
   20    32    25 1
   21    33    21 1
   22    33    26 1
   23    34    22 1
   24    34    27 1
   25    35    23 1
   26    35    28 1
   27    36    12 1
   28    36    24 1
   29    37    13 1
   30    37    15 1
   31    38    31 1
   32    39    20 1
   33    39    32 1
   34    40     2 1
   35    40    33 1
   36    41     3 1
   37    41    34 1
   38    42     4 1
   39    42    35 1
   40    43    38 1
   41    44     5 1
   42    44    17 1
   43    44    39 1
   44    45    10 1
   45    45    18 1
   46    45    40 1
   47    46    19 1
   48    46    41 1
   49    47    14 1
   50    47    16 1
   51    47    42 1
   52    48    38 1
   53    49    48 1
   54    50    49 1
   55    51    50 1
   56    52    51 1
   57    53    51 1
   58    54    53 1
   59    55    54 1
   60    56    55 1
   61    57    56 1
   62    58    56 1
   63    59    58 1
   64    60    59 1
   65    61    60 1
   66    62    61 1
   67    63    61 1
   68    64    27 1
   69    64    46 1
   70    65     5 1
   71    65    10 1
   72    65    64 1
   73    65    14 1
   74    66    23 1
   75    67    23 1
   76    68    23 1
   77    69    22 1
   78    70    22 1
   79    71    22 1
   80    72    21 1
   81    73    21 1
   82    74    21 1
   83    75    20 1
   84    76    20 1
   85    77    20 1
   86    78    15 1
   87    79    15 1
   88    80    15 1
   89    81     8 1
   90    82     8 1
   91    83     8 1
   92    84     7 1
   93    85     7 1
   94    86     6 1
   95    87     6 1
   96    88     3 1
   97    89     3 1
   98    90     1 1
   99    91     1 1
  100    92    63 1
  101    93    63 1
  102    94    63 1
  103    95    62 1
  104    96    62 1
  105    97    62 1
  106    98    60 1
  107    99    60 1
  108   100    59 1
  109   101    59 1
  110   102    58 1
  111   103    58 1
  112   104    57 1
  113   105    57 1
  114   106    57 1
  115   107    55 1
  116   108    55 1
  117   109    54 1
  118   110    54 1
  119   111    53 1
  120   112    53 1
  121   113    19 1
  122   114    18 1
  123   115    17 1
  124   116     9 1
  125   117     2 1
  126   118    52 1
  127   119    52 1
  128   120    52 1
  129   121    51 1
  130   122    50 1
  131   123    50 1
  132   124    49 1
  133   125    49 1
  134   126    48 1
  135   127    48 1
  136   128    43 1
  137   129    43 1
  138   130    43 1
  139   131    39 1
  140   132    32 1
  141   133    31 1
  142   134    61 1
  143   135    56 1
  144   136    24 1
  145   137    24 1
  146   139   138 1
  147   140   139 1
  148   141   140 1
  149   142   140 1
  150   143   142 1
  151   144   138 1
  152   144   143 1
  153   145   144 1
  154   146   145 1
  155   147   146 1
  156   148   147 1
  157   149   148 1
  158   150   149 1
  159   151   150 1
  160   152   151 1
  161   153   152 1
  162   154   138 1
  163   155   138 1
  164   156   143 1
  165   157   147 1
  166   158   151 1
  167   160   159 1
  168   161   160 1
  169   162   161 1
  170   163   161 1
  171   164   163 1
  172   165   159 1
  173   165   164 1
  174   166   165 1
  175   167   166 1
  176   168   167 1
  177   169   168 1
  178   170   169 1
  179   171   170 1
  180   172   171 1
  181   173   172 1
  182   174   153 1
  183   174   173 1
  184   175   159 1
  185   176   159 1
  186   177   164 1
  187   178   168 1
  188   179   172 1
  189   180   179 1
  190   181   179 1
  191   182   179 1
  192   183   178 1
  193   184   178 1
  194   185   178 1
  195   186   177 1
  196   187   177 1
  197   188   177 1
  198   189   176 1
  199   190   176 1
  200   191   176 1
  201   192   175 1
  202   193   175 1
  203   194   175 1
  204   195   160 1
  205   196   160 1
  206   197   158 1
  207   198   158 1
  208   199   158 1
  209   200   157 1
  210   201   157 1
  211   202   157 1
  212   203   156 1
  213   204   156 1
  214   205   156 1
  215   206   155 1
  216   207   155 1
  217   208   155 1
  218   209   154 1
  219   210   154 1
  220   211   154 1
  221   212   141 1
  222   213   146 1
  223   214   145 1
  224   215   142 1
  225   216   142 1
  226   217   174 1
  227   218   173 1
  228   219   171 1
  229   220   170 1
  230   221   169 1
  231   222   140 1
  232   223   167 1
  233   224   166 1
  234   225   165 1
  235   226   163 1
  236   227   161 1
  237   228   139 1
  238   229   139 1
  239   230   153 1
  240   231   152 1
  241   232   150 1
  242   233   149 1
  243   234   148 1
  244   235   162 1
  245   65    153 1
  246   65    174 1
@<TRIPOS>SUBSTRUCTURE
      1 CLA               1 ****               0 ****  **** 
      2 LUT             138 ****               0 ****  **** 
