@<TRIPOS>MOLECULE
Cpptraj generated mol2 file.
  235   246     2     0     0
SMALL
USER_CHARGES


@<TRIPOS>ATOM
      1 CAA        79.9305   59.3308   33.9610 a2         1 CLA     -0.055900
      2 CAB        80.0511   62.1269   43.4221 c8         1 CLA     -0.148500
      3 CAC        72.7850   58.7204   42.5281 a2         1 CLA     -0.012600
      4 CAD        75.4097   57.4067   34.7885 ck         1 CLA      0.398800
      5 NA         78.8412   59.6593   37.4390 ns         1 CLA     -0.225500
      6 CBA        81.3459   59.0402   33.2595 a2         1 CLA     -0.135000
      7 CBB        81.2461   62.1984   44.1042 c0         1 CLA     -0.395200
      8 CBC        72.8937   57.2070   42.7231 a3         1 CLA     -0.037700
      9 CBD        76.9187   57.6802   34.6834 a1         1 CLA     -0.053900
     10 NB         78.6587   60.8485   40.2024 nm         1 CLA     -0.295700
     11 OBD        74.6691   56.9317   33.8802 o2         1 CLA     -0.494600
     12 CGA        81.5810   57.5534   32.9539 c4         1 CLA      0.827000
     13 CGD        77.7091   56.4077   34.4282 c4         1 CLA      0.655300
     14 ND         76.0051   58.8424   37.9805 nm         1 CLA     -0.291600
     15 CED        78.0693   54.1884   35.1340 a3         1 CLA      0.005400
     16 CHA        77.3732   58.4419   35.8654 cs         1 CLA     -0.123800
     17 CHB        80.6035   60.7682   38.6380 aa         1 CLA     -0.291900
     18 CHC        77.3706   60.9213   42.3436 aa         1 CLA     -0.090400
     19 CHD        74.0572   58.7061   39.5610 aa         1 CLA     -0.052000
     20 CMA        82.2063   58.9203   36.8377 a3         1 CLA     -0.230700
     21 CMB        82.1637   62.1007   40.8216 a3         1 CLA     -0.180800
     22 CMC        74.8441   60.4217   44.2449 a3         1 CLA     -0.134000
     23 CMD        72.5898   57.5660   36.9799 a3         1 CLA     -0.141100
     24 C1         82.3552   55.4387   33.8003 a2         1 CLA      0.023000
     25 C1A        78.6408   59.0633   36.2133 ac         1 CLA     -0.015100
     26 C1B        79.9875   61.0871   39.8498 cr         1 CLA      0.054700
     27 C1C        76.1689   60.2879   41.9626 cn         1 CLA     -0.005600
     28 C1D        74.6359   58.5393   38.2602 ap         1 CLA     -0.047300
     29 O1A        81.1568   56.9755   31.9758 o2         1 CLA     -0.610800
     30 O1D        78.2987   56.1749   33.3684 o2         1 CLA     -0.558200
     31 C2         82.6157   55.0102   35.1563 c8         1 CLA     -0.325100
     32 C2A        79.9570   58.9077   35.4415 a1         1 CLA      0.098600
     33 C2B        80.7508   61.7211   40.9552 cb         1 CLA      0.088500
     34 C2C        74.9921   60.0418   42.8143 cb         1 CLA      0.053700
     35 C2D        74.0055   57.9692   37.1023 cb         1 CLA      0.058900
     36 O2A        82.2604   56.8940   33.9101 o1         1 CLA     -0.437200
     37 O2D        77.6796   55.5918   35.4783 o1         1 CLA     -0.357600
     38 C3         83.3303   53.9336   35.4420 c5         1 CLA      0.031200
     39 C3A        80.9941   59.7154   36.2707 a1         1 CLA      0.166800
     40 C3B        79.8587   61.8147   42.0592 cb         1 CLA      0.035000
     41 C3C        74.0957   59.2776   42.0310 cb         1 CLA     -0.089900
     42 C3D        75.0711   57.8109   36.1799 cb         1 CLA     -0.035900
     43 C4         82.7675   52.5845   35.8079 a3         1 CLA     -0.053300
     44 C4A        80.1437   60.0961   37.4810 ac         1 CLA      0.001800
     45 C4B        78.5423   61.2056   41.5590 cn         1 CLA     -0.020900
     46 C4C        74.7003   59.2626   40.6694 cr         1 CLA     -0.044400
     47 C4D        76.2423   58.3980   36.6883 c6         1 CLA     -0.046000
     48 C5         84.8768   54.0960   35.3269 a2         1 CLA     -0.070400
     49 C6         85.4572   55.3817   35.8424 a2         1 CLA      0.043900
     50 C7         85.1751   55.5449   37.3317 a2         1 CLA     -0.150000
     51 C8         85.2398   56.9948   37.7603 a1         1 CLA      0.064200
     52 C9         86.3878   57.8013   37.1948 a3         1 CLA     -0.259300
     53 C10        85.2673   57.0875   39.3174 a2         1 CLA     -0.071900
     54 C11        85.0412   58.4063   40.1421 a2         1 CLA      0.014500
     55 C12        85.3185   58.2103   41.5896 a2         1 CLA     -0.112100
     56 C13        84.6317   59.1682   42.6461 a1         1 CLA      0.089200
     57 C14        85.1758   60.6485   42.4732 a3         1 CLA     -0.239100
     58 C15        84.6935   58.6593   44.1456 a2         1 CLA     -0.102200
     59 C16        83.7652   59.4549   45.0854 a2         1 CLA      0.023900
     60 C17        83.9965   59.2567   46.5552 a2         1 CLA     -0.105700
     61 C18        84.0005   57.7906   47.0198 a1         1 CLA      0.206800
     62 C19        84.6624   57.7273   48.4447 a3         1 CLA     -0.280100
     63 C20        82.6659   57.0593   46.8367 a3         1 CLA     -0.280100
     64 NC         75.9797   59.7596   40.7372 nx         1 CLA     -0.309200
     65 MG         77.2387   60.0277   39.0643 mg         1 CLA      0.895000
     66 HMD3       72.2735   57.7097   35.9291 dc         1 CLA      0.064300
     67 HMD2       72.4253   56.5338   37.3365 dc         1 CLA      0.064300
     68 HMD1       72.0864   58.3092   37.5879 dc         1 CLA      0.064300
     69 HMC3       75.8316   60.4300   44.8228 dc         1 CLA      0.052100
     70 HMC2       74.4354   61.4049   44.1936 dc         1 CLA      0.052100
     71 HMC1       74.0599   59.9278   44.8206 dc         1 CLA      0.052100
     72 HMB3       82.2373   62.5235   39.8394 dc         1 CLA      0.063600
     73 HMB2       82.4507   62.8031   41.6435 dc         1 CLA      0.063600
     74 HMB1       82.7756   61.1922   40.7914 dc         1 CLA      0.063600
     75 HMA3       82.9455   58.5929   36.0985 dc         1 CLA      0.058300
     76 HMA2       82.7659   59.4161   37.5445 dc         1 CLA      0.058300
     77 HMA1       81.7914   57.9931   37.3803 dc         1 CLA      0.058300
     78 HED3       77.7516   53.4869   35.9727 dc         1 CLA      0.079300
     79 HED2       77.5869   53.9139   34.1635 dc         1 CLA      0.079300
     80 HED1       79.1565   53.9759   35.0695 dc         1 CLA      0.079300
     81 HBC3       71.9067   56.7083   42.7490 dc         1 CLA      0.016300
     82 HBC2       73.5808   56.7246   42.0199 dc         1 CLA      0.016300
     83 HBC1       73.2509   57.0405   43.7465 dc         1 CLA      0.016300
     84 HBB2       81.2703   62.3097   45.1910 da         1 CLA      0.183000
     85 HBB1       82.2034   62.0596   43.5703 da         1 CLA      0.183000
     86 HBA2       81.3869   59.6325   32.3324 dc         1 CLA      0.029400
     87 HBA1       82.1548   59.4536   33.8602 dc         1 CLA      0.029400
     88 HAC2       72.1976   59.2414   43.3164 dc         1 CLA      0.029300
     89 HAC1       72.0833   58.7468   41.6412 dc         1 CLA      0.029300
     90 HAA2       79.1480   58.7663   33.5525 dc         1 CLA      0.028700
     91 HAA1       79.8005   60.3443   33.8036 dc         1 CLA      0.028700
     92 H203       81.9274   57.5731   47.4787 dc         1 CLA      0.065600
     93 H202       82.4151   57.1998   45.7661 dc         1 CLA      0.065600
     94 H201       82.8703   56.0258   47.0146 dc         1 CLA      0.065600
     95 H193       84.8655   56.6966   48.6516 dc         1 CLA      0.065600
     96 H192       85.5765   58.2319   48.5282 dc         1 CLA      0.065600
     97 H191       84.0432   58.1528   49.1645 dc         1 CLA      0.065600
     98 H172       84.9503   59.7185   46.6310 dc         1 CLA      0.027600
     99 H171       83.4304   59.7317   47.2838 dc         1 CLA      0.027600
    100 H162       83.8479   60.4984   44.9736 dc         1 CLA      0.002900
    101 H161       82.7309   59.2253   44.7696 dc         1 CLA      0.002900
    102 H152       84.3283   57.6186   44.1558 dc         1 CLA      0.029100
    103 H151       85.7247   58.6333   44.5361 dc         1 CLA      0.029100
    104 H143       84.9361   60.7770   41.4485 dc         1 CLA      0.063600
    105 H142       84.5930   61.4151   43.0370 dc         1 CLA      0.063600
    106 H141       86.3102   60.6008   42.6537 dc         1 CLA      0.063600
    107 H122       84.9581   57.2455   41.9059 dc         1 CLA      0.032500
    108 H121       86.3461   58.0181   41.7935 dc         1 CLA      0.032500
    109 H112       85.7336   59.2006   39.8397 dc         1 CLA      0.006600
    110 H111       84.0354   58.7791   40.0657 dc         1 CLA      0.006600
    111 H102       84.4626   56.6134   39.7200 dc         1 CLA      0.024100
    112 H101       86.0664   56.4772   39.6669 dc         1 CLA      0.024100
    113 HHD        73.0521   58.2624   39.7598 da         1 CLA      0.174300
    114 HHC        77.3040   61.2004   43.3629 da         1 CLA      0.136800
    115 HHB        81.6282   61.0269   38.4629 da         1 CLA      0.138300
    116 HBD        76.9618   58.3434   33.8591 dc         1 CLA      0.107700
    117 HAB        79.1017   62.2654   43.9764 da         1 CLA      0.155200
    118 H93        86.3819   57.7812   36.1215 dc         1 CLA      0.069500
    119 H92        86.1188   58.8214   37.4564 dc         1 CLA      0.069500
    120 H91        87.3935   57.5529   37.6328 dc         1 CLA      0.069500
    121 H8         84.3048   57.4774   37.4780 dc         1 CLA      0.029300
    122 H72        84.1988   55.2525   37.5892 dc         1 CLA      0.044400
    123 H71        85.9236   54.9308   37.8723 dc         1 CLA      0.044400
    124 H62        86.5410   55.3783   35.4933 dc         1 CLA      0.015600
    125 H61        85.1047   56.2451   35.2260 dc         1 CLA      0.015600
    126 H52        85.4392   53.2548   35.7092 dc         1 CLA      0.033200
    127 H51        85.0516   54.0801   34.2199 dc         1 CLA      0.033200
    128 H43        81.6436   52.6218   35.8184 dc         1 CLA      0.037000
    129 H42        83.1889   51.9731   35.0554 dc         1 CLA      0.037000
    130 H41        83.1319   52.2963   36.8361 dc         1 CLA      0.037000
    131 H3A        81.2624   60.6300   35.7045 dc         1 CLA      0.041100
    132 H2A        80.1821   57.8367   35.5455 dc         1 CLA      0.083100
    133 H2         82.4280   55.7321   35.9504 da         1 CLA      0.180900
    134 H18        84.6737   57.2392   46.3686 dc         1 CLA     -0.003900
    135 H13        83.5601   59.1259   42.4500 dc         1 CLA      0.019700
    136 H12        81.4644   54.9332   33.5604 dc         1 CLA      0.120400
    137 H11        83.0889   55.0491   33.0571 dc         1 CLA      0.120400
    138 C1         69.7640   61.8740   50.0314 Z1         2 LUT      0.509236
    139 C2         68.6020   61.4803   50.8707 Z2         2 LUT     -0.434695
    140 C3         67.3346   62.4348   50.8665 Z3         2 LUT      0.437453
    141 O3         66.9377   62.5991   52.2385 S1         2 LUT     -0.547129
    142 C4         67.5748   63.7280   50.0555 Z4         2 LUT     -0.468603
    143 C5         68.2884   63.5157   48.7467 Z5         2 LUT      0.279246
    144 C6         69.3372   62.6783   48.6930 Z6         2 LUT     -0.305473
    145 C7         69.8144   62.1777   47.3099 Z7         2 LUT      0.069402
    146 C8         70.5469   62.8589   46.4364 Z8         2 LUT     -0.191631
    147 C9         71.0213   62.4468   45.1579 Z9         2 LUT      0.196698
    148 C10        71.9722   63.1755   44.6074 Y1         2 LUT     -0.208611
    149 C11        72.6046   62.9815   43.3067 Y2         2 LUT      0.030784
    150 C12        73.7841   63.6522   43.0954 Y3         2 LUT     -0.220316
    151 C13        74.6895   63.4188   42.0134 Y4         2 LUT      0.215937
    152 C14        75.9421   64.0968   42.0401 Y5         2 LUT     -0.185793
    153 C15        77.0304   64.1002   40.9975 Y6         2 LUT     -0.057835
    154 C16        70.5531   60.6113   49.6931 Y7         2 LUT     -0.405615
    155 C17        70.6397   62.7650   50.9725 Y7         2 LUT     -0.405615
    156 C18        67.7203   64.2184   47.5677 Y9         2 LUT     -0.369639
    157 C19        70.2721   61.3085   44.5674 W1         2 LUT     -0.333362
    158 C20        74.1379   63.0279   40.6273 W2         2 LUT     -0.323439
    159 C21        88.5857   66.0433   35.2564 Z1         2 LUT      0.406104
    160 C22        89.2004   65.4134   33.9757 Z2         2 LUT     -0.404965
    161 C23        89.4970   66.3267   32.8172 Z3         2 LUT      0.391255
    162 O23        89.6373   65.4470   31.6526 S1         2 LUT     -0.528210
    163 C24        88.3552   67.3184   32.6721 W6         2 LUT     -0.258361
    164 C25        87.3010   67.4786   33.5162 Z5         2 LUT      0.133546
    165 C26        87.2057   66.6271   34.7318 W8         2 LUT     -0.147008
    166 C27        86.4213   67.1260   35.9398 Z7         2 LUT      0.023843
    167 C28        85.2066   66.5791   36.3202 Z8         2 LUT     -0.216987
    168 C29        84.3190   66.9590   37.3356 Z9         2 LUT      0.206524
    169 C30        83.2174   66.2062   37.6746 Y1         2 LUT     -0.215556
    170 C31        82.2560   66.3670   38.7484 Y2         2 LUT      0.025142
    171 C32        81.2239   65.5592   39.1176 Y3         2 LUT     -0.212209
    172 C33        80.2358   65.8419   40.1929 Y4         2 LUT      0.240937
    173 C34        79.1631   64.9681   40.2252 Y5         2 LUT     -0.218862
    174 C35        78.1312   64.9146   41.2412 Y6         2 LUT     -0.023547
    175 C36        89.7132   67.0456   35.7287 Y7         2 LUT     -0.393485
    176 C37        88.5580   64.9881   36.3739 Y7         2 LUT     -0.393485
    177 C38        86.2218   68.4166   33.1210 Y9         2 LUT     -0.387526
    178 C39        84.7243   68.2047   38.0945 W1         2 LUT     -0.322618
    179 C40        80.8185   66.7422   41.2474 W2         2 LUT     -0.358472
    180 H403       80.1591   66.9102   42.0181 R7         2 LUT      0.097720
    181 H402       81.6388   66.2506   41.8042 R7         2 LUT      0.097720
    182 H401       81.1068   67.7708   40.9544 R7         2 LUT      0.097720
    183 H393       85.0512   68.9919   37.4340 R4         2 LUT      0.082505
    184 H392       84.1227   68.6220   38.8730 R4         2 LUT      0.082505
    185 H391       85.6667   67.9625   38.6423 R4         2 LUT      0.082505
    186 H383       85.8793   69.0580   33.9338 R1         2 LUT      0.104030
    187 H382       86.6556   69.0136   32.3361 R1         2 LUT      0.104030
    188 H381       85.3355   67.9355   32.7796 R1         2 LUT      0.104030
    189 H373       89.4828   64.6822   36.8894 T4         2 LUT      0.089537
    190 H372       87.8902   65.3097   37.1145 T4         2 LUT      0.089537
    191 H371       88.1851   64.1225   35.8394 T4         2 LUT      0.089537
    192 H363       89.4490   67.6847   36.5794 T4         2 LUT      0.089537
    193 H362       90.5900   66.4906   36.0508 T4         2 LUT      0.089537
    194 H361       90.0760   67.7272   34.9899 T4         2 LUT      0.089537
    195 H222       90.1934   65.0137   34.1150 U2         2 LUT      0.127376
    196 H221       88.7324   64.5232   33.6604 U2         2 LUT      0.127376
    197 H203       74.1353   61.9918   40.4464 R7         2 LUT      0.087068
    198 H202       73.0663   63.3054   40.5645 R7         2 LUT      0.087068
    199 H201       74.7564   63.5288   39.8956 R7         2 LUT      0.087068
    200 H193       69.1648   61.3158   44.7146 R4         2 LUT      0.089716
    201 H192       70.3661   61.2629   43.5114 R4         2 LUT      0.089716
    202 H191       70.6808   60.3560   44.8368 R4         2 LUT      0.089716
    203 H183       67.6837   63.5807   46.6825 R1         2 LUT      0.094572
    204 H182       66.7040   64.6426   47.7263 R1         2 LUT      0.094572
    205 H181       68.3837   65.0338   47.2771 R1         2 LUT      0.094572
    206 H173       71.0270   62.1573   51.8094 T4         2 LUT      0.093752
    207 H172       71.5707   63.2245   50.5530 T4         2 LUT      0.093752
    208 H171       70.1129   63.5402   51.4961 T4         2 LUT      0.093752
    209 H163       70.0035   59.9417   49.1287 T4         2 LUT      0.093752
    210 H162       71.4852   60.8009   49.0971 T4         2 LUT      0.093752
    211 H161       70.7806   60.0685   50.5802 T4         2 LUT      0.093752
    212 HO3        66.0354   62.9032   52.2008 Q1         2 LUT      0.300121
    213 H8         70.8983   63.8365   46.7996 U7         2 LUT      0.080784
    214 H7         69.5112   61.1539   47.1944 U6         2 LUT      0.042190
    215 H42        66.7041   64.4623   49.9408 U5         2 LUT      0.145166
    216 H41        68.3289   64.4061   50.5725 U5         2 LUT      0.145166
    217 H35        78.1719   65.7112   42.0405 T3         2 LUT      0.077919
    218 H34        79.1648   64.1725   39.4601 T2         2 LUT      0.073626
    219 H32        81.0313   64.6816   38.4787 T1         2 LUT      0.092510
    220 H31        82.4176   67.2241   39.3733 U9         2 LUT      0.070048
    221 H30        82.9769   65.2788   37.1670 U8         2 LUT      0.085442
    222 H3         66.6946   61.5545   50.4153 U3         2 LUT     -0.031596
    223 H28        84.9795   65.6254   35.8623 U7         2 LUT      0.084728
    224 H27        86.9430   67.8903   36.5686 U6         2 LUT      0.087291
    225 H26        86.7112   65.6882   34.2912 Q6         2 LUT      0.075325
    226 H24        88.4487   68.0965   31.9085 Q5         2 LUT      0.094482
    227 H23        90.4851   66.6933   33.0766 U3         2 LUT     -0.024869
    228 H22        68.3138   60.5060   50.3287 U2         2 LUT      0.127376
    229 H21        68.8584   61.2573   51.9232 U2         2 LUT      0.127376
    230 H15        77.0414   63.4163   40.1390 T3         2 LUT      0.093200
    231 H14        76.1143   64.6321   42.9450 T2         2 LUT      0.068865
    232 H12        74.1041   64.1573   43.9322 T1         2 LUT      0.095507
    233 H11        72.3054   62.1768   42.6139 U9         2 LUT      0.068930
    234 H10        72.3760   63.9383   45.2749 U8         2 LUT      0.083911
    235 H1         89.9893   65.9384   30.9292 Q1         2 LUT      0.297311
@<TRIPOS>BOND
    1     6     1 1
    2     7     2 1
    3     8     3 1
    4     9     4 1
    5    11     4 1
    6    12     6 1
    7    13     9 1
    8    16     9 1
    9    25     5 1
   10    25    16 1
   11    26    10 1
   12    26    17 1
   13    27    18 1
   14    28    14 1
   15    28    19 1
   16    29    12 1
   17    30    13 1
   18    31    24 1
   19    32     1 1
   20    32    25 1
   21    33    21 1
   22    33    26 1
   23    34    22 1
   24    34    27 1
   25    35    23 1
   26    35    28 1
   27    36    12 1
   28    36    24 1
   29    37    13 1
   30    37    15 1
   31    38    31 1
   32    39    20 1
   33    39    32 1
   34    40     2 1
   35    40    33 1
   36    41     3 1
   37    41    34 1
   38    42     4 1
   39    42    35 1
   40    43    38 1
   41    44     5 1
   42    44    17 1
   43    44    39 1
   44    45    10 1
   45    45    18 1
   46    45    40 1
   47    46    19 1
   48    46    41 1
   49    47    14 1
   50    47    16 1
   51    47    42 1
   52    48    38 1
   53    49    48 1
   54    50    49 1
   55    51    50 1
   56    52    51 1
   57    53    51 1
   58    54    53 1
   59    55    54 1
   60    56    55 1
   61    57    56 1
   62    58    56 1
   63    59    58 1
   64    60    59 1
   65    61    60 1
   66    62    61 1
   67    63    61 1
   68    64    27 1
   69    64    46 1
   70    65     5 1
   71    65    10 1
   72    65    64 1
   73    65    14 1
   74    66    23 1
   75    67    23 1
   76    68    23 1
   77    69    22 1
   78    70    22 1
   79    71    22 1
   80    72    21 1
   81    73    21 1
   82    74    21 1
   83    75    20 1
   84    76    20 1
   85    77    20 1
   86    78    15 1
   87    79    15 1
   88    80    15 1
   89    81     8 1
   90    82     8 1
   91    83     8 1
   92    84     7 1
   93    85     7 1
   94    86     6 1
   95    87     6 1
   96    88     3 1
   97    89     3 1
   98    90     1 1
   99    91     1 1
  100    92    63 1
  101    93    63 1
  102    94    63 1
  103    95    62 1
  104    96    62 1
  105    97    62 1
  106    98    60 1
  107    99    60 1
  108   100    59 1
  109   101    59 1
  110   102    58 1
  111   103    58 1
  112   104    57 1
  113   105    57 1
  114   106    57 1
  115   107    55 1
  116   108    55 1
  117   109    54 1
  118   110    54 1
  119   111    53 1
  120   112    53 1
  121   113    19 1
  122   114    18 1
  123   115    17 1
  124   116     9 1
  125   117     2 1
  126   118    52 1
  127   119    52 1
  128   120    52 1
  129   121    51 1
  130   122    50 1
  131   123    50 1
  132   124    49 1
  133   125    49 1
  134   126    48 1
  135   127    48 1
  136   128    43 1
  137   129    43 1
  138   130    43 1
  139   131    39 1
  140   132    32 1
  141   133    31 1
  142   134    61 1
  143   135    56 1
  144   136    24 1
  145   137    24 1
  146   139   138 1
  147   140   139 1
  148   141   140 1
  149   142   140 1
  150   143   142 1
  151   144   138 1
  152   144   143 1
  153   145   144 1
  154   146   145 1
  155   147   146 1
  156   148   147 1
  157   149   148 1
  158   150   149 1
  159   151   150 1
  160   152   151 1
  161   153   152 1
  162   154   138 1
  163   155   138 1
  164   156   143 1
  165   157   147 1
  166   158   151 1
  167   160   159 1
  168   161   160 1
  169   162   161 1
  170   163   161 1
  171   164   163 1
  172   165   159 1
  173   165   164 1
  174   166   165 1
  175   167   166 1
  176   168   167 1
  177   169   168 1
  178   170   169 1
  179   171   170 1
  180   172   171 1
  181   173   172 1
  182   174   153 1
  183   174   173 1
  184   175   159 1
  185   176   159 1
  186   177   164 1
  187   178   168 1
  188   179   172 1
  189   180   179 1
  190   181   179 1
  191   182   179 1
  192   183   178 1
  193   184   178 1
  194   185   178 1
  195   186   177 1
  196   187   177 1
  197   188   177 1
  198   189   176 1
  199   190   176 1
  200   191   176 1
  201   192   175 1
  202   193   175 1
  203   194   175 1
  204   195   160 1
  205   196   160 1
  206   197   158 1
  207   198   158 1
  208   199   158 1
  209   200   157 1
  210   201   157 1
  211   202   157 1
  212   203   156 1
  213   204   156 1
  214   205   156 1
  215   206   155 1
  216   207   155 1
  217   208   155 1
  218   209   154 1
  219   210   154 1
  220   211   154 1
  221   212   141 1
  222   213   146 1
  223   214   145 1
  224   215   142 1
  225   216   142 1
  226   217   174 1
  227   218   173 1
  228   219   171 1
  229   220   170 1
  230   221   169 1
  231   222   140 1
  232   223   167 1
  233   224   166 1
  234   225   165 1
  235   226   163 1
  236   227   161 1
  237   228   139 1
  238   229   139 1
  239   230   153 1
  240   231   152 1
  241   232   150 1
  242   233   149 1
  243   234   148 1
  244   235   162 1
  245   65    153 1
  246   65    174 1
@<TRIPOS>SUBSTRUCTURE
      1 CLA               1 ****               0 ****  **** 
      2 LUT             138 ****               0 ****  **** 
