@<TRIPOS>MOLECULE
Cpptraj generated mol2 file.
  235   246     2     0     0
SMALL
USER_CHARGES


@<TRIPOS>ATOM
      1 CAA        79.2860   59.7901   33.1110 a2         1 CLA     -0.055900
      2 CAB        79.1470   63.5078   42.0025 c8         1 CLA     -0.148500
      3 CAC        72.0505   59.5557   41.3313 a2         1 CLA     -0.012600
      4 CAD        75.1530   57.1695   34.1776 ck         1 CLA      0.398800
      5 NA         78.1891   60.0110   36.4886 ns         1 CLA     -0.225500
      6 CBA        80.5137   59.5261   32.2190 a2         1 CLA     -0.135000
      7 CBB        80.3105   63.7932   42.5542 c0         1 CLA     -0.395200
      8 CBC        71.8231   58.1129   41.7071 a3         1 CLA     -0.037700
      9 CBD        76.5758   57.6090   33.8997 a1         1 CLA     -0.053900
     10 NB         77.9667   61.6043   39.0311 nm         1 CLA     -0.295700
     11 OBD        74.5011   56.3808   33.5038 o2         1 CLA     -0.494600
     12 CGA        80.7139   58.0972   31.8509 c4         1 CLA      0.827000
     13 CGD        77.4199   56.3817   33.7509 c4         1 CLA      0.655300
     14 ND         75.4012   59.1167   37.0716 nm         1 CLA     -0.291600
     15 CED        77.5987   54.1103   34.5088 a3         1 CLA      0.005400
     16 CHA        76.9246   58.4744   35.1153 cs         1 CLA     -0.123800
     17 CHB        79.8859   61.5576   37.4630 aa         1 CLA     -0.291900
     18 CHC        76.6200   61.8911   41.0267 aa         1 CLA     -0.090400
     19 CHD        73.5994   58.8900   38.5893 aa         1 CLA     -0.052000
     20 CMA        81.6121   59.2151   35.9223 a3         1 CLA     -0.230700
     21 CMB        81.2422   63.4132   39.4798 a3         1 CLA     -0.180800
     22 CMC        73.9656   61.4193   43.0508 a3         1 CLA     -0.134000
     23 CMD        72.4066   57.3018   36.0670 a3         1 CLA     -0.141100
     24 C1         82.0452   56.1456   32.6372 a2         1 CLA      0.023000
     25 C1A        78.0955   59.1535   35.3728 ac         1 CLA     -0.015100
     26 C1B        79.2372   61.9529   38.6442 cr         1 CLA      0.054700
     27 C1C        75.4567   61.0398   40.7754 cn         1 CLA     -0.005600
     28 C1D        74.1850   58.6225   37.3770 ap         1 CLA     -0.047300
     29 O1A        80.4325   57.5787   30.7913 o2         1 CLA     -0.610800
     30 O1D        78.2458   56.1867   32.8904 o2         1 CLA     -0.558200
     31 C2         82.7127   55.9058   34.0023 c8         1 CLA     -0.325100
     32 C2A        79.3973   59.1913   34.5492 a1         1 CLA      0.098600
     33 C2B        79.8730   62.8276   39.6119 cb         1 CLA      0.088500
     34 C2C        74.3431   60.7842   41.6876 cb         1 CLA      0.053700
     35 C2D        73.6901   57.8239   36.1926 cb         1 CLA      0.058900
     36 O2A        81.4452   57.4992   32.8392 o1         1 CLA     -0.437200
     37 O2D        77.1124   55.4513   34.7281 o1         1 CLA     -0.357600
     38 C3         83.8984   55.2721   34.2365 c5         1 CLA      0.031200
     39 C3A        80.3744   60.0723   35.4313 a1         1 CLA      0.166800
     40 C3B        79.0328   62.9010   40.6611 cb         1 CLA      0.035000
     41 C3C        73.4919   59.9505   40.8911 cb         1 CLA     -0.089900
     42 C3D        74.7714   57.7913   35.3832 cb         1 CLA     -0.035900
     43 C4         83.9890   53.7863   34.6018 a3         1 CLA     -0.053300
     44 C4A        79.4030   60.6471   36.5107 ac         1 CLA      0.001800
     45 C4B        77.8249   62.1456   40.2833 cn         1 CLA     -0.020900
     46 C4C        74.1038   59.7305   39.6642 cr         1 CLA     -0.044400
     47 C4D        75.8203   58.5023   35.9714 c6         1 CLA     -0.046000
     48 C5         85.2125   55.9844   34.2861 a2         1 CLA     -0.070400
     49 C6         85.2282   57.3296   35.0796 a2         1 CLA      0.043900
     50 C7         84.9615   57.1079   36.5702 a2         1 CLA     -0.150000
     51 C8         85.0818   58.3344   37.5381 a1         1 CLA      0.064200
     52 C9         86.5247   58.7835   37.5739 a3         1 CLA     -0.259300
     53 C10        84.3990   58.1352   38.8925 a2         1 CLA     -0.071900
     54 C11        84.4790   59.3604   39.8359 a2         1 CLA      0.014500
     55 C12        83.8562   59.0692   41.2448 a2         1 CLA     -0.112100
     56 C13        83.8214   60.3551   42.1819 a1         1 CLA      0.089200
     57 C14        85.1942   60.6259   42.8309 a3         1 CLA     -0.239100
     58 C15        82.7203   60.2207   43.2525 a2         1 CLA     -0.102200
     59 C16        81.2370   60.0369   42.7767 a2         1 CLA      0.023900
     60 C17        80.2506   59.9095   43.9613 a2         1 CLA     -0.105700
     61 C18        78.8386   59.8893   43.5125 a1         1 CLA      0.206800
     62 C19        78.4024   58.4155   43.1915 a3         1 CLA     -0.280100
     63 C20        77.9347   60.5426   44.6100 a3         1 CLA     -0.280100
     64 NC         75.3290   60.2918   39.6391 nx         1 CLA     -0.309200
     65 MG         76.5868   60.4325   38.0140 mg         1 CLA      0.895000
     66 HMD3       72.0309   57.1170   37.0818 dc         1 CLA      0.064300
     67 HMD2       71.7383   58.0357   35.5967 dc         1 CLA      0.064300
     68 HMD1       72.3606   56.3783   35.5193 dc         1 CLA      0.064300
     69 HMC3       74.5817   62.2943   43.2865 dc         1 CLA      0.052100
     70 HMC2       72.8867   61.4446   43.1963 dc         1 CLA      0.052100
     71 HMC1       74.3048   60.5671   43.6831 dc         1 CLA      0.052100
     72 HMB3       81.5198   63.3168   38.4614 dc         1 CLA      0.063600
     73 HMB2       81.2710   64.4563   39.7096 dc         1 CLA      0.063600
     74 HMB1       81.9311   62.8073   40.0199 dc         1 CLA      0.063600
     75 HMA3       81.4064   58.7374   36.8787 dc         1 CLA      0.058300
     76 HMA2       82.1067   58.6188   35.1904 dc         1 CLA      0.058300
     77 HMA1       82.3438   60.0167   36.1354 dc         1 CLA      0.058300
     78 HED3       78.6635   54.0500   34.9169 dc         1 CLA      0.079300
     79 HED2       77.0384   53.5133   35.2078 dc         1 CLA      0.079300
     80 HED1       77.5947   53.7321   33.4622 dc         1 CLA      0.079300
     81 HBC3       72.2503   57.8393   42.6555 dc         1 CLA      0.016300
     82 HBC2       70.7605   57.9755   41.7779 dc         1 CLA      0.016300
     83 HBC1       72.1446   57.4905   40.8541 dc         1 CLA      0.016300
     84 HBB2       80.3392   64.1428   43.6011 da         1 CLA      0.183000
     85 HBB1       81.2239   63.4402   42.1045 da         1 CLA      0.183000
     86 HBA2       80.4463   59.9345   31.2759 dc         1 CLA      0.029400
     87 HBA1       81.3205   60.0695   32.7437 dc         1 CLA      0.029400
     88 HAC2       71.6508   60.1636   42.1760 dc         1 CLA      0.029300
     89 HAC1       71.3277   59.8010   40.5567 dc         1 CLA      0.029300
     90 HAA2       78.4603   59.4413   32.5294 dc         1 CLA      0.028700
     91 HAA1       79.1155   60.8486   33.1344 dc         1 CLA      0.028700
     92 H203       78.3284   61.5650   44.8547 dc         1 CLA      0.065600
     93 H202       76.9428   60.6114   44.2315 dc         1 CLA      0.065600
     94 H201       77.9663   60.0035   45.5807 dc         1 CLA      0.065600
     95 H193       78.0467   57.9331   44.1544 dc         1 CLA      0.065600
     96 H192       77.5473   58.4680   42.5706 dc         1 CLA      0.065600
     97 H191       79.1141   57.8644   42.5864 dc         1 CLA      0.065600
     98 H172       80.5694   59.0617   44.5196 dc         1 CLA      0.027600
     99 H171       80.4371   60.8289   44.5334 dc         1 CLA      0.027600
    100 H162       80.8707   60.7243   42.0741 dc         1 CLA      0.002900
    101 H161       81.0627   59.0025   42.3413 dc         1 CLA      0.002900
    102 H152       82.9670   59.3240   43.8138 dc         1 CLA      0.029100
    103 H151       82.7882   61.0410   43.8531 dc         1 CLA      0.029100
    104 H143       85.1420   61.4267   43.5037 dc         1 CLA      0.063600
    105 H142       85.6208   59.8305   43.4602 dc         1 CLA      0.063600
    106 H141       85.8386   60.8353   41.9914 dc         1 CLA      0.063600
    107 H122       82.8106   58.7460   41.0549 dc         1 CLA      0.032500
    108 H121       84.2816   58.2385   41.7910 dc         1 CLA      0.032500
    109 H112       85.5236   59.6405   39.9916 dc         1 CLA      0.006600
    110 H111       84.0565   60.2233   39.4383 dc         1 CLA      0.006600
    111 H102       83.3274   57.9069   38.6814 dc         1 CLA      0.024100
    112 H101       84.6953   57.2568   39.4442 dc         1 CLA      0.024100
    113 HHD        72.6461   58.5262   38.9139 da         1 CLA      0.174300
    114 HHC        76.3986   62.5036   41.9838 da         1 CLA      0.136800
    115 HHB        80.9477   61.7090   37.4195 da         1 CLA      0.138300
    116 HBD        76.6088   58.1526   32.9736 dc         1 CLA      0.107700
    117 HAB        78.1720   63.7890   42.5562 da         1 CLA      0.155200
    118 H93        87.2093   58.1735   38.0651 dc         1 CLA      0.069500
    119 H92        86.8682   59.0452   36.5908 dc         1 CLA      0.069500
    120 H91        86.6289   59.7435   38.1762 dc         1 CLA      0.069500
    121 H8         84.4287   59.1164   37.0005 dc         1 CLA      0.029300
    122 H72        84.0226   56.7750   36.9111 dc         1 CLA      0.044400
    123 H71        85.6352   56.3287   36.8669 dc         1 CLA      0.044400
    124 H62        86.1928   57.7485   34.8277 dc         1 CLA      0.015600
    125 H61        84.5241   58.0227   34.6114 dc         1 CLA      0.015600
    126 H52        86.0024   55.3546   34.7127 dc         1 CLA      0.033200
    127 H51        85.5367   56.1736   33.2547 dc         1 CLA      0.033200
    128 H43        84.5722   53.6529   35.4315 dc         1 CLA      0.037000
    129 H42        83.0325   53.2747   34.7337 dc         1 CLA      0.037000
    130 H41        84.4990   53.2769   33.8617 dc         1 CLA      0.037000
    131 H3A        80.5856   60.9035   34.8192 dc         1 CLA      0.041100
    132 H2A        79.6572   58.1309   34.6239 dc         1 CLA      0.083100
    133 H2         82.2312   56.3470   34.8153 da         1 CLA      0.180900
    134 H18        78.5697   60.2446   42.5030 dc         1 CLA     -0.003900
    135 H13        83.6705   61.2192   41.5237 dc         1 CLA      0.019700
    136 H12        81.3027   55.4005   32.4234 dc         1 CLA      0.120400
    137 H11        82.7673   56.0668   31.8638 dc         1 CLA      0.120400
    138 C1         68.4489   62.4266   48.6433 Z1         2 LUT      0.509236
    139 C2         67.1909   62.3234   49.5140 Z2         2 LUT     -0.434695
    140 C3         66.5282   63.6172   49.8403 Z3         2 LUT      0.437453
    141 O3         66.4850   63.7384   51.2766 S1         2 LUT     -0.547129
    142 C4         67.0539   64.8800   49.1199 Z4         2 LUT     -0.468603
    143 C5         67.6375   64.5869   47.7934 Z5         2 LUT      0.279246
    144 C6         68.3782   63.4806   47.5566 Z6         2 LUT     -0.305473
    145 C7         68.8466   63.1638   46.1557 Z7         2 LUT      0.069402
    146 C8         69.9223   63.7692   45.5213 Z8         2 LUT     -0.191631
    147 C9         70.4896   63.4661   44.1245 Z9         2 LUT      0.196698
    148 C10        71.5820   64.1085   43.7220 Y1         2 LUT     -0.208611
    149 C11        72.2186   64.1970   42.4252 Y2         2 LUT      0.030784
    150 C12        73.4342   64.7020   42.1988 Y3         2 LUT     -0.220316
    151 C13        74.2581   64.7437   41.0219 Y4         2 LUT      0.215937
    152 C14        75.4197   65.3831   41.2358 Y5         2 LUT     -0.185793
    153 C15        76.4940   65.4470   40.3518 Y6         2 LUT     -0.057835
    154 C16        68.9514   61.0286   48.2658 Y7         2 LUT     -0.405615
    155 C17        69.5693   62.9140   49.6257 Y7         2 LUT     -0.405615
    156 C18        67.1380   65.5077   46.7361 Y9         2 LUT     -0.369639
    157 C19        69.7552   62.4814   43.2423 W1         2 LUT     -0.333362
    158 C20        73.7702   64.0933   39.7924 W2         2 LUT     -0.323439
    159 C21        88.3222   66.3485   34.7037 Z1         2 LUT      0.406104
    160 C22        88.9176   65.6978   33.5084 Z2         2 LUT     -0.404965
    161 C23        88.9246   66.4351   32.2477 Z3         2 LUT      0.391255
    162 O23        89.5649   65.7042   31.2616 S1         2 LUT     -0.528210
    163 C24        87.5657   67.0152   32.0183 W6         2 LUT     -0.258361
    164 C25        86.5902   67.2006   33.0000 Z5         2 LUT      0.133546
    165 C26        86.8122   66.7210   34.4689 W8         2 LUT     -0.147008
    166 C27        86.2218   67.5896   35.5613 Z7         2 LUT      0.023843
    167 C28        84.9098   67.5442   35.9037 Z8         2 LUT     -0.216987
    168 C29        84.1568   68.0594   37.0794 Z9         2 LUT      0.206524
    169 C30        82.9737   67.4513   37.3487 Y1         2 LUT     -0.215556
    170 C31        82.0602   67.5902   38.4158 Y2         2 LUT      0.025142
    171 C32        80.9220   66.8411   38.5644 Y3         2 LUT     -0.212209
    172 C33        79.9667   66.9033   39.6393 Y4         2 LUT      0.240937
    173 C34        78.8312   66.1200   39.5902 Y5         2 LUT     -0.218862
    174 C35        77.7352   66.1028   40.5072 Y6         2 LUT     -0.023547
    175 C36        89.2580   67.5396   35.1354 Y7         2 LUT     -0.393485
    176 C37        88.5401   65.3246   35.8621 Y7         2 LUT     -0.393485
    177 C38        85.2460   67.8865   32.5657 Y9         2 LUT     -0.387526
    178 C39        84.7881   69.1725   37.9000 W1         2 LUT     -0.322618
    179 C40        80.3314   67.7788   40.7986 W2         2 LUT     -0.358472
    180 H403       80.2727   68.8751   40.5252 R7         2 LUT      0.097720
    181 H402       79.6920   67.7503   41.6746 R7         2 LUT      0.097720
    182 H401       81.2998   67.4007   41.2170 R7         2 LUT      0.097720
    183 H393       85.2631   69.9768   37.3332 R4         2 LUT      0.082505
    184 H392       84.0138   69.6501   38.4774 R4         2 LUT      0.082505
    185 H391       85.5692   68.7656   38.5614 R4         2 LUT      0.082505
    186 H383       84.3836   67.2512   32.2502 R1         2 LUT      0.104030
    187 H382       84.9094   68.6508   33.3188 R1         2 LUT      0.104030
    188 H381       85.5288   68.4814   31.6898 R1         2 LUT      0.104030
    189 H373       88.0613   64.3740   35.5922 T4         2 LUT      0.089537
    190 H372       89.5542   65.1875   35.9689 T4         2 LUT      0.089537
    191 H371       88.3540   65.6212   36.8707 T4         2 LUT      0.089537
    192 H363       89.1734   68.3827   34.4714 T4         2 LUT      0.089537
    193 H362       89.1744   67.9903   36.1620 T4         2 LUT      0.089537
    194 H361       90.2898   67.2417   35.1582 T4         2 LUT      0.089537
    195 H222       89.8937   65.2542   33.7672 U2         2 LUT      0.127376
    196 H221       88.3468   64.8696   33.1726 U2         2 LUT      0.127376
    197 H203       73.9970   63.0577   39.7318 R7         2 LUT      0.087068
    198 H202       72.6642   64.1352   39.6050 R7         2 LUT      0.087068
    199 H201       74.2158   64.6440   38.9503 R7         2 LUT      0.087068
    200 H193       70.5030   61.9298   42.6458 R4         2 LUT      0.089716
    201 H192       69.0906   61.8058   43.7219 R4         2 LUT      0.089716
    202 H191       69.1887   63.0784   42.4595 R4         2 LUT      0.089716
    203 H183       66.7141   66.4245   47.2266 R1         2 LUT      0.094572
    204 H182       67.9416   65.8920   46.1146 R1         2 LUT      0.094572
    205 H181       66.2191   65.0744   46.1547 R1         2 LUT      0.094572
    206 H173       69.5817   62.3922   50.5631 T4         2 LUT      0.093752
    207 H172       70.5720   62.8304   49.1343 T4         2 LUT      0.093752
    208 H171       69.5605   63.9272   49.8554 T4         2 LUT      0.093752
    209 H163       68.1111   60.5414   47.8027 T4         2 LUT      0.093752
    210 H162       69.7341   60.9573   47.5323 T4         2 LUT      0.093752
    211 H161       69.2911   60.4286   49.1189 T4         2 LUT      0.093752
    212 HO3        67.2523   64.1775   51.6753 Q1         2 LUT      0.300121
    213 H8         70.3848   64.6082   46.0054 U7         2 LUT      0.080784
    214 H7         68.3949   62.3252   45.5783 U6         2 LUT      0.042190
    215 H42        66.1548   65.5424   49.0395 U5         2 LUT      0.145166
    216 H41        67.7539   65.3871   49.7629 U5         2 LUT      0.145166
    217 H35        77.8167   66.7179   41.3693 T3         2 LUT      0.077919
    218 H34        78.6118   65.5732   38.6848 T2         2 LUT      0.073626
    219 H32        80.6223   66.0947   37.8393 T1         2 LUT      0.092510
    220 H31        82.2780   68.2909   39.2336 U9         2 LUT      0.070048
    221 H30        82.6945   66.7475   36.5937 U8         2 LUT      0.085442
    222 H3         65.5347   63.5416   49.3654 U3         2 LUT     -0.031596
    223 H28        84.3485   66.8235   35.2809 U7         2 LUT      0.084728
    224 H27        86.9013   67.9749   36.3099 U6         2 LUT      0.087291
    225 H26        86.3462   65.7522   34.5392 Q6         2 LUT      0.075325
    226 H24        87.4149   67.1832   30.9623 Q5         2 LUT      0.094482
    227 H23        89.6640   67.2078   32.4403 U3         2 LUT     -0.024869
    228 H22        66.3879   61.8949   48.9231 U2         2 LUT      0.127376
    229 H21        67.2171   61.7711   50.4679 U2         2 LUT      0.127376
    230 H15        76.3968   64.7918   39.4783 T3         2 LUT      0.093200
    231 H14        75.6596   65.8406   42.2244 T2         2 LUT      0.068865
    232 H12        73.7229   65.2139   43.1132 T1         2 LUT      0.095507
    233 H11        71.6943   63.6052   41.7167 U9         2 LUT      0.068930
    234 H10        71.9648   64.7974   44.4293 U8         2 LUT      0.083911
    235 H1         89.6906   66.1481   30.4093 Q1         2 LUT      0.297311
@<TRIPOS>BOND
    1     6     1 1
    2     7     2 1
    3     8     3 1
    4     9     4 1
    5    11     4 1
    6    12     6 1
    7    13     9 1
    8    16     9 1
    9    25     5 1
   10    25    16 1
   11    26    10 1
   12    26    17 1
   13    27    18 1
   14    28    14 1
   15    28    19 1
   16    29    12 1
   17    30    13 1
   18    31    24 1
   19    32     1 1
   20    32    25 1
   21    33    21 1
   22    33    26 1
   23    34    22 1
   24    34    27 1
   25    35    23 1
   26    35    28 1
   27    36    12 1
   28    36    24 1
   29    37    13 1
   30    37    15 1
   31    38    31 1
   32    39    20 1
   33    39    32 1
   34    40     2 1
   35    40    33 1
   36    41     3 1
   37    41    34 1
   38    42     4 1
   39    42    35 1
   40    43    38 1
   41    44     5 1
   42    44    17 1
   43    44    39 1
   44    45    10 1
   45    45    18 1
   46    45    40 1
   47    46    19 1
   48    46    41 1
   49    47    14 1
   50    47    16 1
   51    47    42 1
   52    48    38 1
   53    49    48 1
   54    50    49 1
   55    51    50 1
   56    52    51 1
   57    53    51 1
   58    54    53 1
   59    55    54 1
   60    56    55 1
   61    57    56 1
   62    58    56 1
   63    59    58 1
   64    60    59 1
   65    61    60 1
   66    62    61 1
   67    63    61 1
   68    64    27 1
   69    64    46 1
   70    65     5 1
   71    65    10 1
   72    65    64 1
   73    65    14 1
   74    66    23 1
   75    67    23 1
   76    68    23 1
   77    69    22 1
   78    70    22 1
   79    71    22 1
   80    72    21 1
   81    73    21 1
   82    74    21 1
   83    75    20 1
   84    76    20 1
   85    77    20 1
   86    78    15 1
   87    79    15 1
   88    80    15 1
   89    81     8 1
   90    82     8 1
   91    83     8 1
   92    84     7 1
   93    85     7 1
   94    86     6 1
   95    87     6 1
   96    88     3 1
   97    89     3 1
   98    90     1 1
   99    91     1 1
  100    92    63 1
  101    93    63 1
  102    94    63 1
  103    95    62 1
  104    96    62 1
  105    97    62 1
  106    98    60 1
  107    99    60 1
  108   100    59 1
  109   101    59 1
  110   102    58 1
  111   103    58 1
  112   104    57 1
  113   105    57 1
  114   106    57 1
  115   107    55 1
  116   108    55 1
  117   109    54 1
  118   110    54 1
  119   111    53 1
  120   112    53 1
  121   113    19 1
  122   114    18 1
  123   115    17 1
  124   116     9 1
  125   117     2 1
  126   118    52 1
  127   119    52 1
  128   120    52 1
  129   121    51 1
  130   122    50 1
  131   123    50 1
  132   124    49 1
  133   125    49 1
  134   126    48 1
  135   127    48 1
  136   128    43 1
  137   129    43 1
  138   130    43 1
  139   131    39 1
  140   132    32 1
  141   133    31 1
  142   134    61 1
  143   135    56 1
  144   136    24 1
  145   137    24 1
  146   139   138 1
  147   140   139 1
  148   141   140 1
  149   142   140 1
  150   143   142 1
  151   144   138 1
  152   144   143 1
  153   145   144 1
  154   146   145 1
  155   147   146 1
  156   148   147 1
  157   149   148 1
  158   150   149 1
  159   151   150 1
  160   152   151 1
  161   153   152 1
  162   154   138 1
  163   155   138 1
  164   156   143 1
  165   157   147 1
  166   158   151 1
  167   160   159 1
  168   161   160 1
  169   162   161 1
  170   163   161 1
  171   164   163 1
  172   165   159 1
  173   165   164 1
  174   166   165 1
  175   167   166 1
  176   168   167 1
  177   169   168 1
  178   170   169 1
  179   171   170 1
  180   172   171 1
  181   173   172 1
  182   174   153 1
  183   174   173 1
  184   175   159 1
  185   176   159 1
  186   177   164 1
  187   178   168 1
  188   179   172 1
  189   180   179 1
  190   181   179 1
  191   182   179 1
  192   183   178 1
  193   184   178 1
  194   185   178 1
  195   186   177 1
  196   187   177 1
  197   188   177 1
  198   189   176 1
  199   190   176 1
  200   191   176 1
  201   192   175 1
  202   193   175 1
  203   194   175 1
  204   195   160 1
  205   196   160 1
  206   197   158 1
  207   198   158 1
  208   199   158 1
  209   200   157 1
  210   201   157 1
  211   202   157 1
  212   203   156 1
  213   204   156 1
  214   205   156 1
  215   206   155 1
  216   207   155 1
  217   208   155 1
  218   209   154 1
  219   210   154 1
  220   211   154 1
  221   212   141 1
  222   213   146 1
  223   214   145 1
  224   215   142 1
  225   216   142 1
  226   217   174 1
  227   218   173 1
  228   219   171 1
  229   220   170 1
  230   221   169 1
  231   222   140 1
  232   223   167 1
  233   224   166 1
  234   225   165 1
  235   226   163 1
  236   227   161 1
  237   228   139 1
  238   229   139 1
  239   230   153 1
  240   231   152 1
  241   232   150 1
  242   233   149 1
  243   234   148 1
  244   235   162 1
  245   65    153 1
  246   65    174 1
@<TRIPOS>SUBSTRUCTURE
      1 CLA               1 ****               0 ****  **** 
      2 LUT             138 ****               0 ****  **** 
