@<TRIPOS>MOLECULE
Cpptraj generated mol2 file.
  235   246     2     0     0
SMALL
USER_CHARGES


@<TRIPOS>ATOM
      1 CAA        78.3740   58.8333   33.9385 a2         1 CLA     -0.055900
      2 CAB        78.0179   62.0389   43.1743 c8         1 CLA     -0.148500
      3 CAC        71.3028   57.8100   42.3590 a2         1 CLA     -0.012600
      4 CAD        74.3687   55.8196   35.0146 ck         1 CLA      0.398800
      5 NA         77.2429   59.0890   37.2176 ns         1 CLA     -0.225500
      6 CBA        79.6358   58.6113   33.0317 a2         1 CLA     -0.135000
      7 CBB        79.1254   61.7278   43.9106 c0         1 CLA     -0.395200
      8 CBC        71.1943   56.2275   42.1444 a3         1 CLA     -0.037700
      9 CBD        75.7478   56.5153   34.6822 a1         1 CLA     -0.053900
     10 NB         76.9924   60.3818   39.9277 nm         1 CLA     -0.295700
     11 OBD        73.9563   55.0114   34.2114 o2         1 CLA     -0.494600
     12 CGA        80.1804   57.1842   32.6975 c4         1 CLA      0.827000
     13 CGD        76.8001   55.5093   34.2688 c4         1 CLA      0.655300
     14 ND         74.4795   57.9280   37.7916 nm         1 CLA     -0.291600
     15 CED        77.3810   53.1292   34.5472 a3         1 CLA      0.005400
     16 CHA        75.9751   57.5286   35.7873 cs         1 CLA     -0.123800
     17 CHB        78.9551   60.2842   38.5210 aa         1 CLA     -0.291900
     18 CHC        75.6610   60.4145   41.9748 aa         1 CLA     -0.090400
     19 CHD        72.5766   57.7461   39.3428 aa         1 CLA     -0.052000
     20 CMA        80.6890   58.2604   37.0381 a3         1 CLA     -0.230700
     21 CMB        80.0141   62.4775   40.6038 a3         1 CLA     -0.180800
     22 CMC        73.4781   59.5536   44.0547 a3         1 CLA     -0.134000
     23 CMD        71.3571   55.9011   36.8666 a3         1 CLA     -0.141100
     24 C1         80.8132   55.0045   33.5324 a2         1 CLA      0.023000
     25 C1A        77.1281   58.3161   36.0519 ac         1 CLA     -0.015100
     26 C1B        78.2826   60.7716   39.6609 cr         1 CLA      0.054700
     27 C1C        74.5912   59.5635   41.6309 cn         1 CLA     -0.005600
     28 C1D        73.1885   57.4712   38.1623 ap         1 CLA     -0.047300
     29 O1A        80.1684   56.7367   31.5723 o2         1 CLA     -0.610800
     30 O1D        77.5512   55.5287   33.3210 o2         1 CLA     -0.558200
     31 C2         81.6171   54.6801   34.6935 c8         1 CLA     -0.325100
     32 C2A        78.5281   58.3236   35.3753 a1         1 CLA      0.098600
     33 C2B        78.7717   61.6125   40.6980 cb         1 CLA      0.088500
     34 C2C        73.4781   59.1865   42.5597 cb         1 CLA      0.053700
     35 C2D        72.6817   56.5369   37.1164 cb         1 CLA      0.058900
     36 O2A        80.5415   56.4201   33.8201 o1         1 CLA     -0.437200
     37 O2D        76.7916   54.3452   35.0626 o1         1 CLA     -0.357600
     38 C3         82.5914   53.7018   34.8082 c5         1 CLA      0.031200
     39 C3A        79.5345   59.1007   36.3505 a1         1 CLA      0.166800
     40 C3B        77.8857   61.5571   41.7457 cb         1 CLA      0.035000
     41 C3C        72.6006   58.4102   41.8412 cb         1 CLA     -0.089900
     42 C3D        73.8616   56.4888   36.2258 cb         1 CLA     -0.035900
     43 C4         82.1609   52.4447   35.3727 a3         1 CLA     -0.053300
     44 C4A        78.4928   59.5833   37.4213 ac         1 CLA      0.001800
     45 C4B        76.7524   60.7736   41.2060 cn         1 CLA     -0.020900
     46 C4C        73.1171   58.3912   40.4230 cr         1 CLA     -0.044400
     47 C4D        74.8234   57.3841   36.6752 c6         1 CLA     -0.046000
     48 C5         84.0662   53.8473   34.5619 a2         1 CLA     -0.070400
     49 C6         84.6625   55.2359   34.8789 a2         1 CLA      0.043900
     50 C7         84.4112   55.6381   36.3675 a2         1 CLA     -0.150000
     51 C8         84.6994   57.0996   36.7184 a1         1 CLA      0.064200
     52 C9         85.8799   57.7084   36.0359 a3         1 CLA     -0.259300
     53 C10        84.7753   57.4254   38.2469 a2         1 CLA     -0.071900
     54 C11        83.6450   56.7553   39.0389 a2         1 CLA      0.014500
     55 C12        83.5818   57.3801   40.4753 a2         1 CLA     -0.112100
     56 C13        82.2457   56.9837   41.1387 a1         1 CLA      0.089200
     57 C14        81.1510   57.8849   40.5962 a3         1 CLA     -0.239100
     58 C15        82.3244   56.9861   42.6868 a2         1 CLA     -0.102200
     59 C16        82.4858   58.3612   43.4016 a2         1 CLA      0.023900
     60 C17        83.2060   58.2232   44.7709 a2         1 CLA     -0.105700
     61 C18        83.4876   59.5642   45.5418 a1         1 CLA      0.206800
     62 C19        82.2451   60.3156   46.0835 a3         1 CLA     -0.280100
     63 C20        84.3782   59.1738   46.7580 a3         1 CLA     -0.280100
     64 NC         74.3531   59.0926   40.4213 nx         1 CLA     -0.309200
     65 MG         75.6824   59.2787   38.8018 mg         1 CLA      0.895000
     66 HMD3       70.6842   56.7252   36.5521 dc         1 CLA      0.064300
     67 HMD2       71.2939   55.1136   36.1543 dc         1 CLA      0.064300
     68 HMD1       70.8803   55.5864   37.8058 dc         1 CLA      0.064300
     69 HMC3       74.1121   60.3810   44.2526 dc         1 CLA      0.052100
     70 HMC2       72.4891   59.7853   44.3967 dc         1 CLA      0.052100
     71 HMC1       73.8202   58.6522   44.6053 dc         1 CLA      0.052100
     72 HMB3       80.1625   62.8667   39.5728 dc         1 CLA      0.063600
     73 HMB2       79.8892   63.3566   41.1558 dc         1 CLA      0.063600
     74 HMB1       80.8383   61.9233   41.0636 dc         1 CLA      0.063600
     75 HMA3       81.3475   58.9532   37.6009 dc         1 CLA      0.058300
     76 HMA2       80.2771   57.4053   37.5842 dc         1 CLA      0.058300
     77 HMA1       81.3619   57.9043   36.2944 dc         1 CLA      0.058300
     78 HED3       77.0573   52.8889   33.5110 dc         1 CLA      0.079300
     79 HED2       78.4539   53.3017   34.5070 dc         1 CLA      0.079300
     80 HED1       77.2825   52.2486   35.2233 dc         1 CLA      0.079300
     81 HBC3       72.2196   55.7772   42.0581 dc         1 CLA      0.016300
     82 HBC2       70.6432   55.8023   42.9680 dc         1 CLA      0.016300
     83 HBC1       70.8378   56.0106   41.0680 dc         1 CLA      0.016300
     84 HBB2       79.2787   62.0022   44.9729 da         1 CLA      0.183000
     85 HBB1       79.9546   61.2536   43.3643 da         1 CLA      0.183000
     86 HBA2       79.3254   59.2128   32.1591 dc         1 CLA      0.029400
     87 HBA1       80.4354   59.1694   33.5409 dc         1 CLA      0.029400
     88 HAC2       71.1478   58.1788   43.3301 dc         1 CLA      0.029300
     89 HAC1       70.5241   58.1723   41.7340 dc         1 CLA      0.029300
     90 HAA2       77.5916   58.2604   33.5055 dc         1 CLA      0.028700
     91 HAA1       78.0718   59.8885   33.9452 dc         1 CLA      0.028700
     92 H203       84.6530   59.8688   47.5785 dc         1 CLA      0.065600
     93 H202       83.7872   58.4379   47.3232 dc         1 CLA      0.065600
     94 H201       85.2356   58.6053   46.4409 dc         1 CLA      0.065600
     95 H193       81.6948   60.6017   45.1706 dc         1 CLA      0.065600
     96 H192       81.6578   59.6926   46.7485 dc         1 CLA      0.065600
     97 H191       82.6009   61.1868   46.6110 dc         1 CLA      0.065600
     98 H172       82.8841   57.4980   45.4368 dc         1 CLA      0.027600
     99 H171       84.2265   57.8922   44.5289 dc         1 CLA      0.027600
    100 H162       83.0635   59.0102   42.7395 dc         1 CLA      0.002900
    101 H161       81.4688   58.7505   43.6162 dc         1 CLA      0.002900
    102 H152       81.4863   56.4061   43.0969 dc         1 CLA      0.029100
    103 H151       83.2388   56.3152   42.7567 dc         1 CLA      0.029100
    104 H143       80.3964   57.6459   41.2866 dc         1 CLA      0.063600
    105 H142       81.3955   58.9189   40.4522 dc         1 CLA      0.063600
    106 H141       80.8229   57.4512   39.6378 dc         1 CLA      0.063600
    107 H122       84.4912   56.9734   40.9967 dc         1 CLA      0.032500
    108 H121       83.5964   58.5055   40.4636 dc         1 CLA      0.032500
    109 H112       82.6673   57.0980   38.6026 dc         1 CLA      0.006600
    110 H111       83.7558   55.6710   39.0827 dc         1 CLA      0.006600
    111 H102       85.6599   56.9942   38.7629 dc         1 CLA      0.024100
    112 H101       84.7028   58.5312   38.4355 dc         1 CLA      0.024100
    113 HHD        71.6125   57.2550   39.4804 da         1 CLA      0.174300
    114 HHC        75.7452   60.9420   42.9409 da         1 CLA      0.136800
    115 HHB        80.0135   60.5229   38.4963 da         1 CLA      0.138300
    116 HBD        75.5184   57.0634   33.7875 dc         1 CLA      0.107700
    117 HAB        77.2712   62.6206   43.6487 da         1 CLA      0.155200
    118 H93        85.7780   57.8660   34.9579 dc         1 CLA      0.069500
    119 H92        85.9239   58.7308   36.4180 dc         1 CLA      0.069500
    120 H91        86.8054   57.1902   36.2677 dc         1 CLA      0.069500
    121 H8         83.8412   57.5723   36.2533 dc         1 CLA      0.029300
    122 H72        83.3464   55.4667   36.6000 dc         1 CLA      0.044400
    123 H71        84.8882   54.8472   36.9975 dc         1 CLA      0.044400
    124 H62        85.7201   55.2528   34.7152 dc         1 CLA      0.015600
    125 H61        84.1168   56.0302   34.3166 dc         1 CLA      0.015600
    126 H52        84.5093   53.1407   35.2735 dc         1 CLA      0.033200
    127 H51        84.3500   53.7786   33.4895 dc         1 CLA      0.033200
    128 H43        81.1101   52.4939   35.4877 dc         1 CLA      0.037000
    129 H42        82.3840   51.9088   34.5192 dc         1 CLA      0.037000
    130 H41        82.6916   52.2690   36.2784 dc         1 CLA      0.037000
    131 H3A        79.9275   59.9061   35.7503 dc         1 CLA      0.041100
    132 H2A        78.9064   57.3392   35.2705 dc         1 CLA      0.083100
    133 H2         81.7212   55.3995   35.5021 da         1 CLA      0.180900
    134 H18        84.1511   60.1992   44.8841 dc         1 CLA     -0.003900
    135 H13        82.0619   55.9303   40.8578 dc         1 CLA      0.019700
    136 H12        79.9194   54.4017   33.4478 dc         1 CLA      0.120400
    137 H11        81.2685   54.7763   32.5717 dc         1 CLA      0.120400
    138 C1         68.3779   61.1298   49.5031 Z1         2 LUT      0.509236
    139 C2         67.8173   61.9367   50.8118 Z2         2 LUT     -0.434695
    140 C3         66.3207   62.2061   50.6966 Z3         2 LUT      0.437453
    141 O3         65.9781   62.9333   51.9428 S1         2 LUT     -0.547129
    142 C4         66.1299   63.1906   49.5592 Z4         2 LUT     -0.468603
    143 C5         66.8032   62.7752   48.2728 Z5         2 LUT      0.279246
    144 C6         67.8180   61.8468   48.2484 Z6         2 LUT     -0.305473
    145 C7         68.6277   61.6293   47.0493 Z7         2 LUT      0.069402
    146 C8         69.4672   62.4969   46.4821 Z8         2 LUT     -0.191631
    147 C9         70.1616   62.4705   45.1792 Z9         2 LUT      0.196698
    148 C10        71.1968   63.3946   44.9173 Y1         2 LUT     -0.208611
    149 C11        72.0405   63.3713   43.8078 Y2         2 LUT      0.030784
    150 C12        73.1632   64.1137   43.5955 Y3         2 LUT     -0.220316
    151 C13        74.0307   64.0905   42.4086 Y4         2 LUT      0.215937
    152 C14        75.1639   64.8153   42.4206 Y5         2 LUT     -0.185793
    153 C15        76.2597   64.7827   41.5090 Y6         2 LUT     -0.057835
    154 C16        67.8587   59.6488   49.6720 Y7         2 LUT     -0.405615
    155 C17        69.8974   60.9409   49.4010 Y7         2 LUT     -0.405615
    156 C18        66.4031   63.7138   47.1952 Y9         2 LUT     -0.369639
    157 C19        69.6534   61.2578   44.3998 W1         2 LUT     -0.333362
    158 C20        73.4984   63.2973   41.2294 W2         2 LUT     -0.323439
    159 C21        87.4146   65.4256   34.8334 Z1         2 LUT      0.406104
    160 C22        88.0753   64.9338   33.5303 Z2         2 LUT     -0.404965
    161 C23        88.4082   65.9780   32.5042 Z3         2 LUT      0.391255
    162 O23        89.1020   65.5695   31.2882 S1         2 LUT     -0.528210
    163 C24        87.2505   66.9079   32.3005 W6         2 LUT     -0.258361
    164 C25        86.2181   66.9883   33.1458 Z5         2 LUT      0.133546
    165 C26        86.0741   66.1388   34.4307 W8         2 LUT     -0.147008
    166 C27        85.3204   66.8297   35.5526 Z7         2 LUT      0.023843
    167 C28        84.2523   66.3805   36.2608 Z8         2 LUT     -0.216987
    168 C29        83.5563   66.9981   37.4461 Z9         2 LUT      0.206524
    169 C30        82.4595   66.2793   37.8735 Y1         2 LUT     -0.215556
    170 C31        81.7338   66.5199   39.0662 Y2         2 LUT      0.025142
    171 C32        80.5670   65.8787   39.4243 Y3         2 LUT     -0.212209
    172 C33        79.6685   66.2576   40.5509 Y4         2 LUT      0.240937
    173 C34        78.4696   65.5545   40.7733 Y5         2 LUT     -0.218862
    174 C35        77.3492   65.6044   41.6458 Y6         2 LUT     -0.023547
    175 C36        88.3946   66.3228   35.6198 Y7         2 LUT     -0.393485
    176 C37        87.1636   64.1901   35.6348 Y7         2 LUT     -0.393485
    177 C38        84.9939   67.9500   32.7526 Y9         2 LUT     -0.387526
    178 C39        84.1593   68.1685   38.1938 W1         2 LUT     -0.322618
    179 C40        80.0139   67.4279   41.3903 W2         2 LUT     -0.358472
    180 H403       80.0815   68.4112   40.8774 R7         2 LUT      0.097720
    181 H402       79.1974   67.5802   42.0639 R7         2 LUT      0.097720
    182 H401       80.9881   67.2736   41.8847 R7         2 LUT      0.097720
    183 H393       84.6330   68.8984   37.4865 R4         2 LUT      0.082505
    184 H392       83.4791   68.8277   38.7165 R4         2 LUT      0.082505
    185 H391       84.8929   67.8394   38.9405 R4         2 LUT      0.082505
    186 H383       85.2592   68.3939   31.7712 R1         2 LUT      0.104030
    187 H382       84.1214   67.2792   32.6340 R1         2 LUT      0.104030
    188 H381       84.6680   68.6922   33.5210 R1         2 LUT      0.104030
    189 H373       88.0992   63.6253   35.7231 T4         2 LUT      0.089537
    190 H372       86.8105   64.4069   36.6857 T4         2 LUT      0.089537
    191 H371       86.4239   63.5137   35.1455 T4         2 LUT      0.089537
    192 H363       89.2713   65.8526   35.9724 T4         2 LUT      0.089537
    193 H362       88.7520   67.2271   35.1074 T4         2 LUT      0.089537
    194 H361       87.9208   66.7135   36.5257 T4         2 LUT      0.089537
    195 H222       88.9688   64.3013   33.7514 U2         2 LUT      0.127376
    196 H221       87.4209   64.1503   33.0260 U2         2 LUT      0.127376
    197 H203       73.9557   63.3713   40.2486 R7         2 LUT      0.087068
    198 H202       73.4894   62.2560   41.4830 R7         2 LUT      0.087068
    199 H201       72.4439   63.5269   41.1316 R7         2 LUT      0.087068
    200 H193       70.2936   61.0613   43.5539 R4         2 LUT      0.089716
    201 H192       69.6706   60.3251   45.0489 R4         2 LUT      0.089716
    202 H191       68.6258   61.3745   44.0664 R4         2 LUT      0.089716
    203 H183       66.4289   63.2551   46.1934 R1         2 LUT      0.094572
    204 H182       65.3712   64.1193   47.2564 R1         2 LUT      0.094572
    205 H181       67.0552   64.6226   47.1612 R1         2 LUT      0.094572
    206 H173       70.3262   60.4947   50.2838 T4         2 LUT      0.093752
    207 H172       70.1004   60.1926   48.6596 T4         2 LUT      0.093752
    208 H171       70.4943   61.9333   49.1231 T4         2 LUT      0.093752
    209 H163       68.1263   59.1600   50.6221 T4         2 LUT      0.093752
    210 H162       66.7951   59.6241   49.6352 T4         2 LUT      0.093752
    211 H161       68.1522   58.9630   48.8715 T4         2 LUT      0.093752
    212 HO3        65.9912   62.3998   52.7491 Q1         2 LUT      0.300121
    213 H8         69.6158   63.4695   46.9592 U7         2 LUT      0.080784
    214 H7         68.2976   60.7413   46.5425 U6         2 LUT      0.042190
    215 H42        65.1208   63.2056   49.3619 U5         2 LUT      0.145166
    216 H41        66.4449   64.2102   49.8231 U5         2 LUT      0.145166
    217 H35        77.3240   66.2911   42.4548 T3         2 LUT      0.077919
    218 H34        78.4198   64.6532   40.1792 T2         2 LUT      0.073626
    219 H32        80.2786   65.0040   38.7686 T1         2 LUT      0.092510
    220 H31        81.9753   67.4754   39.4724 U9         2 LUT      0.070048
    221 H30        82.1753   65.3908   37.3193 U8         2 LUT      0.085442
    222 H3         65.6798   61.3047   50.5815 U3         2 LUT     -0.031596
    223 H28        83.9222   65.3855   36.0160 U7         2 LUT      0.084728
    224 H27        85.8623   67.7350   35.9488 U6         2 LUT      0.087291
    225 H26        85.3665   65.4921   33.9356 Q6         2 LUT      0.075325
    226 H24        87.2177   67.5887   31.4187 Q5         2 LUT      0.094482
    227 H23        89.2682   66.4426   33.0636 U3         2 LUT     -0.024869
    228 H22        68.0017   61.4605   51.7532 U2         2 LUT      0.127376
    229 H21        68.3395   62.8857   50.9233 U2         2 LUT      0.127376
    230 H15        76.2397   63.9543   40.7709 T3         2 LUT      0.093200
    231 H14        75.4333   65.2905   43.3778 T2         2 LUT      0.068865
    232 H12        73.4070   64.8178   44.3116 T1         2 LUT      0.095507
    233 H11        71.7855   62.5936   43.0760 U9         2 LUT      0.068930
    234 H10        71.4781   64.1165   45.6014 U8         2 LUT      0.083911
    235 H1         88.4613   65.1329   30.6990 Q1         2 LUT      0.297311
@<TRIPOS>BOND
    1     6     1 1
    2     7     2 1
    3     8     3 1
    4     9     4 1
    5    11     4 1
    6    12     6 1
    7    13     9 1
    8    16     9 1
    9    25     5 1
   10    25    16 1
   11    26    10 1
   12    26    17 1
   13    27    18 1
   14    28    14 1
   15    28    19 1
   16    29    12 1
   17    30    13 1
   18    31    24 1
   19    32     1 1
   20    32    25 1
   21    33    21 1
   22    33    26 1
   23    34    22 1
   24    34    27 1
   25    35    23 1
   26    35    28 1
   27    36    12 1
   28    36    24 1
   29    37    13 1
   30    37    15 1
   31    38    31 1
   32    39    20 1
   33    39    32 1
   34    40     2 1
   35    40    33 1
   36    41     3 1
   37    41    34 1
   38    42     4 1
   39    42    35 1
   40    43    38 1
   41    44     5 1
   42    44    17 1
   43    44    39 1
   44    45    10 1
   45    45    18 1
   46    45    40 1
   47    46    19 1
   48    46    41 1
   49    47    14 1
   50    47    16 1
   51    47    42 1
   52    48    38 1
   53    49    48 1
   54    50    49 1
   55    51    50 1
   56    52    51 1
   57    53    51 1
   58    54    53 1
   59    55    54 1
   60    56    55 1
   61    57    56 1
   62    58    56 1
   63    59    58 1
   64    60    59 1
   65    61    60 1
   66    62    61 1
   67    63    61 1
   68    64    27 1
   69    64    46 1
   70    65     5 1
   71    65    10 1
   72    65    64 1
   73    65    14 1
   74    66    23 1
   75    67    23 1
   76    68    23 1
   77    69    22 1
   78    70    22 1
   79    71    22 1
   80    72    21 1
   81    73    21 1
   82    74    21 1
   83    75    20 1
   84    76    20 1
   85    77    20 1
   86    78    15 1
   87    79    15 1
   88    80    15 1
   89    81     8 1
   90    82     8 1
   91    83     8 1
   92    84     7 1
   93    85     7 1
   94    86     6 1
   95    87     6 1
   96    88     3 1
   97    89     3 1
   98    90     1 1
   99    91     1 1
  100    92    63 1
  101    93    63 1
  102    94    63 1
  103    95    62 1
  104    96    62 1
  105    97    62 1
  106    98    60 1
  107    99    60 1
  108   100    59 1
  109   101    59 1
  110   102    58 1
  111   103    58 1
  112   104    57 1
  113   105    57 1
  114   106    57 1
  115   107    55 1
  116   108    55 1
  117   109    54 1
  118   110    54 1
  119   111    53 1
  120   112    53 1
  121   113    19 1
  122   114    18 1
  123   115    17 1
  124   116     9 1
  125   117     2 1
  126   118    52 1
  127   119    52 1
  128   120    52 1
  129   121    51 1
  130   122    50 1
  131   123    50 1
  132   124    49 1
  133   125    49 1
  134   126    48 1
  135   127    48 1
  136   128    43 1
  137   129    43 1
  138   130    43 1
  139   131    39 1
  140   132    32 1
  141   133    31 1
  142   134    61 1
  143   135    56 1
  144   136    24 1
  145   137    24 1
  146   139   138 1
  147   140   139 1
  148   141   140 1
  149   142   140 1
  150   143   142 1
  151   144   138 1
  152   144   143 1
  153   145   144 1
  154   146   145 1
  155   147   146 1
  156   148   147 1
  157   149   148 1
  158   150   149 1
  159   151   150 1
  160   152   151 1
  161   153   152 1
  162   154   138 1
  163   155   138 1
  164   156   143 1
  165   157   147 1
  166   158   151 1
  167   160   159 1
  168   161   160 1
  169   162   161 1
  170   163   161 1
  171   164   163 1
  172   165   159 1
  173   165   164 1
  174   166   165 1
  175   167   166 1
  176   168   167 1
  177   169   168 1
  178   170   169 1
  179   171   170 1
  180   172   171 1
  181   173   172 1
  182   174   153 1
  183   174   173 1
  184   175   159 1
  185   176   159 1
  186   177   164 1
  187   178   168 1
  188   179   172 1
  189   180   179 1
  190   181   179 1
  191   182   179 1
  192   183   178 1
  193   184   178 1
  194   185   178 1
  195   186   177 1
  196   187   177 1
  197   188   177 1
  198   189   176 1
  199   190   176 1
  200   191   176 1
  201   192   175 1
  202   193   175 1
  203   194   175 1
  204   195   160 1
  205   196   160 1
  206   197   158 1
  207   198   158 1
  208   199   158 1
  209   200   157 1
  210   201   157 1
  211   202   157 1
  212   203   156 1
  213   204   156 1
  214   205   156 1
  215   206   155 1
  216   207   155 1
  217   208   155 1
  218   209   154 1
  219   210   154 1
  220   211   154 1
  221   212   141 1
  222   213   146 1
  223   214   145 1
  224   215   142 1
  225   216   142 1
  226   217   174 1
  227   218   173 1
  228   219   171 1
  229   220   170 1
  230   221   169 1
  231   222   140 1
  232   223   167 1
  233   224   166 1
  234   225   165 1
  235   226   163 1
  236   227   161 1
  237   228   139 1
  238   229   139 1
  239   230   153 1
  240   231   152 1
  241   232   150 1
  242   233   149 1
  243   234   148 1
  244   235   162 1
  245   65    153 1
  246   65    174 1
@<TRIPOS>SUBSTRUCTURE
      1 CLA               1 ****               0 ****  **** 
      2 LUT             138 ****               0 ****  **** 
