@<TRIPOS>MOLECULE
Cpptraj generated mol2 file.
  235   246     2     0     0
SMALL
USER_CHARGES


@<TRIPOS>ATOM
      1 CAA        77.9771   56.8407   32.7515 a2         1 CLA     -0.055900
      2 CAB        78.5595   61.1924   41.6434 c8         1 CLA     -0.148500
      3 CAC        71.5084   57.4236   41.6411 a2         1 CLA     -0.012600
      4 CAD        73.7609   54.7475   34.3878 ck         1 CLA      0.398800
      5 NA         77.2517   57.5929   36.2570 ns         1 CLA     -0.225500
      6 CBA        79.1003   56.2831   31.8511 a2         1 CLA     -0.135000
      7 CBB        79.7299   61.5146   42.2124 c0         1 CLA     -0.395200
      8 CBC        70.9663   56.0245   41.5430 a3         1 CLA     -0.037700
      9 CBD        75.2235   55.1786   33.9520 a1         1 CLA     -0.053900
     10 NB         77.2931   59.0921   38.8391 nm         1 CLA     -0.295700
     11 OBD        73.1337   53.9938   33.6886 o2         1 CLA     -0.494600
     12 CGA        79.2125   54.7655   31.7281 c4         1 CLA      0.827000
     13 CGD        76.0988   53.9422   33.8565 c4         1 CLA      0.655300
     14 ND         74.3813   56.9608   37.0904 nm         1 CLA     -0.291600
     15 CED        76.4626   51.7902   35.0055 a3         1 CLA      0.005400
     16 CHA        75.6954   56.2161   35.0394 cs         1 CLA     -0.123800
     17 CHB        79.0612   58.9185   37.1570 aa         1 CLA     -0.291900
     18 CHC        76.1241   59.5337   40.9199 aa         1 CLA     -0.090400
     19 CHD        72.6729   56.9172   38.7607 aa         1 CLA     -0.052000
     20 CMA        80.6616   56.9229   35.0595 a3         1 CLA     -0.230700
     21 CMB        80.5274   61.0040   39.0067 a3         1 CLA     -0.180800
     22 CMC        74.0041   59.1250   43.1321 a3         1 CLA     -0.134000
     23 CMD        71.1668   54.9995   36.6753 a3         1 CLA     -0.141100
     24 C1         79.9250   52.7251   32.7850 a2         1 CLA      0.023000
     25 C1A        76.9383   56.8781   35.1873 ac         1 CLA     -0.015100
     26 C1B        78.5503   59.4259   38.3474 cr         1 CLA      0.054700
     27 C1C        74.9899   58.6487   40.7901 cn         1 CLA     -0.005600
     28 C1D        73.1186   56.5786   37.4899 ap         1 CLA     -0.047300
     29 O1A        78.7409   54.1035   30.8304 o2         1 CLA     -0.610800
     30 O1D        76.6402   53.6344   32.8304 o2         1 CLA     -0.558200
     31 C2         80.4396   52.3215   34.2005 c8         1 CLA     -0.325100
     32 C2A        78.2011   56.6283   34.2923 a1         1 CLA      0.098600
     33 C2B        79.1791   60.4281   39.2808 cb         1 CLA      0.088500
     34 C2C        73.9800   58.4248   41.7954 cb         1 CLA      0.053700
     35 C2D        72.4733   55.7236   36.5304 cb         1 CLA      0.058900
     36 O2A        79.8743   54.1943   32.7979 o1         1 CLA     -0.437200
     37 O2D        76.0269   53.1709   35.0365 o1         1 CLA     -0.357600
     38 C3         81.3485   51.3309   34.3974 c5         1 CLA      0.031200
     39 C3A        79.2440   57.5809   34.8996 a1         1 CLA      0.166800
     40 C3B        78.4102   60.4483   40.3705 cb         1 CLA      0.035000
     41 C3C        72.9214   57.7688   41.0892 cb         1 CLA     -0.089900
     42 C3D        73.4931   55.5059   35.5904 cb         1 CLA     -0.035900
     43 C4         80.9611   49.8880   34.8863 a3         1 CLA     -0.053300
     44 C4A        78.5166   57.9976   36.1983 ac         1 CLA      0.001800
     45 C4B        77.2047   59.7110   40.0372 cn         1 CLA     -0.020900
     46 C4C        73.4358   57.4725   39.7798 cr         1 CLA     -0.044400
     47 C4D        74.5770   56.3719   35.8704 c6         1 CLA     -0.046000
     48 C5         82.8531   51.5143   34.2664 a2         1 CLA     -0.070400
     49 C6         83.5350   52.8218   34.7524 a2         1 CLA      0.043900
     50 C7         83.5007   52.9675   36.2991 a2         1 CLA     -0.150000
     51 C8         84.4409   54.0572   36.8168 a1         1 CLA      0.064200
     52 C9         85.9857   53.8142   36.5510 a3         1 CLA     -0.259300
     53 C10        84.1196   54.3762   38.3359 a2         1 CLA     -0.071900
     54 C11        82.7148   54.8237   38.8692 a2         1 CLA      0.014500
     55 C12        82.8693   55.6306   40.2174 a2         1 CLA     -0.112100
     56 C13        81.5101   56.2593   40.7571 a1         1 CLA      0.089200
     57 C14        80.9277   57.4149   39.8676 a3         1 CLA     -0.239100
     58 C15        81.6194   56.5442   42.2701 a2         1 CLA     -0.102200
     59 C16        82.2488   57.8232   42.7480 a2         1 CLA      0.023900
     60 C17        81.8893   58.1570   44.2005 a2         1 CLA     -0.105700
     61 C18        82.4928   59.5304   44.7026 a1         1 CLA      0.206800
     62 C19        81.8975   59.9459   46.0350 a3         1 CLA     -0.280100
     63 C20        84.0692   59.4933   44.8590 a3         1 CLA     -0.280100
     64 NC         74.7217   57.9069   39.6306 nx         1 CLA     -0.309200
     65 MG         75.8844   57.9974   37.9670 mg         1 CLA      0.895000
     66 HMD3       71.1496   54.2959   35.8419 dc         1 CLA      0.064300
     67 HMD2       71.1958   54.6222   37.6797 dc         1 CLA      0.064300
     68 HMD1       70.5621   55.8904   36.5426 dc         1 CLA      0.064300
     69 HMC3       74.3427   60.1222   42.9748 dc         1 CLA      0.052100
     70 HMC2       73.0671   59.0095   43.7539 dc         1 CLA      0.052100
     71 HMC1       74.7838   58.5897   43.6700 dc         1 CLA      0.052100
     72 HMB3       81.2555   60.2396   39.2214 dc         1 CLA      0.063600
     73 HMB2       80.6207   61.3500   38.0449 dc         1 CLA      0.063600
     74 HMB1       80.6152   61.9280   39.6378 dc         1 CLA      0.063600
     75 HMA3       80.6079   56.1568   35.7868 dc         1 CLA      0.058300
     76 HMA2       81.1248   56.4937   34.1430 dc         1 CLA      0.058300
     77 HMA1       81.3187   57.6894   35.4078 dc         1 CLA      0.058300
     78 HED3       77.5638   51.6198   34.8050 dc         1 CLA      0.079300
     79 HED2       76.1892   51.3273   35.9437 dc         1 CLA      0.079300
     80 HED1       76.0398   51.2177   34.0956 dc         1 CLA      0.079300
     81 HBC3       70.1311   55.9823   42.2340 dc         1 CLA      0.016300
     82 HBC2       70.5179   55.8063   40.5894 dc         1 CLA      0.016300
     83 HBC1       71.6938   55.2633   41.8463 dc         1 CLA      0.016300
     84 HBB2       79.7983   61.8199   43.2525 da         1 CLA      0.183000
     85 HBB1       80.6346   61.0703   41.7986 da         1 CLA      0.183000
     86 HBA2       78.9773   56.6741   30.8775 dc         1 CLA      0.029400
     87 HBA1       80.0790   56.5527   32.0886 dc         1 CLA      0.029400
     88 HAC2       71.4339   57.7589   42.6516 dc         1 CLA      0.029300
     89 HAC1       70.6960   57.9582   41.1057 dc         1 CLA      0.029300
     90 HAA2       77.0572   56.3035   32.4505 dc         1 CLA      0.028700
     91 HAA1       77.7975   57.9027   32.6487 dc         1 CLA      0.028700
     92 H203       84.4358   60.4575   45.1466 dc         1 CLA      0.065600
     93 H202       84.1778   58.7421   45.5758 dc         1 CLA      0.065600
     94 H201       84.4969   59.2238   43.8648 dc         1 CLA      0.065600
     95 H193       82.2254   59.1829   46.7938 dc         1 CLA      0.065600
     96 H192       82.4122   60.8721   46.3049 dc         1 CLA      0.065600
     97 H191       80.8044   59.9534   46.1302 dc         1 CLA      0.065600
     98 H172       80.7669   58.2421   44.1097 dc         1 CLA      0.027600
     99 H171       82.2194   57.3286   44.8522 dc         1 CLA      0.027600
    100 H162       83.3009   57.7630   42.7497 dc         1 CLA      0.002900
    101 H161       81.9048   58.7423   42.2312 dc         1 CLA      0.002900
    102 H152       80.5928   56.4547   42.6672 dc         1 CLA      0.029100
    103 H151       82.0779   55.6736   42.8071 dc         1 CLA      0.029100
    104 H143       80.8902   57.0676   38.8309 dc         1 CLA      0.063600
    105 H142       80.0205   57.6631   40.2841 dc         1 CLA      0.063600
    106 H141       81.6555   58.2506   39.9154 dc         1 CLA      0.063600
    107 H122       83.3304   55.0110   40.9931 dc         1 CLA      0.032500
    108 H121       83.4673   56.5402   40.0752 dc         1 CLA      0.032500
    109 H112       82.2934   55.3988   38.1092 dc         1 CLA      0.006600
    110 H111       82.0701   53.9365   39.0355 dc         1 CLA      0.006600
    111 H102       84.3250   53.4617   38.9244 dc         1 CLA      0.024100
    112 H101       84.8892   55.0848   38.6240 dc         1 CLA      0.024100
    113 HHD        71.7581   56.4246   39.1115 da         1 CLA      0.174300
    114 HHC        76.2429   59.9627   41.9401 da         1 CLA      0.136800
    115 HHB        80.1061   59.2677   37.0912 da         1 CLA      0.138300
    116 HBD        75.0897   55.4854   32.9828 dc         1 CLA      0.107700
    117 HAB        77.6804   61.4813   42.2036 da         1 CLA      0.155200
    118 H93        86.1975   52.8121   37.0536 dc         1 CLA      0.069500
    119 H92        86.1630   53.8089   35.5041 dc         1 CLA      0.069500
    120 H91        86.6124   54.5508   37.0166 dc         1 CLA      0.069500
    121 H8         84.2238   54.9937   36.2470 dc         1 CLA      0.029300
    122 H72        82.5768   53.4271   36.5455 dc         1 CLA      0.044400
    123 H71        83.6070   52.0581   36.8186 dc         1 CLA      0.044400
    124 H62        84.5579   52.7601   34.3797 dc         1 CLA      0.015600
    125 H61        83.0538   53.7333   34.3400 dc         1 CLA      0.015600
    126 H52        83.3443   50.6762   34.6624 dc         1 CLA      0.033200
    127 H51        83.0765   51.3779   33.2311 dc         1 CLA      0.033200
    128 H43        81.4935   49.1714   34.1881 dc         1 CLA      0.037000
    129 H42        81.3863   49.8110   35.8940 dc         1 CLA      0.037000
    130 H41        79.8802   49.7853   34.9075 dc         1 CLA      0.037000
    131 H3A        79.3282   58.5197   34.3218 dc         1 CLA      0.041100
    132 H2A        78.5869   55.5937   34.4368 dc         1 CLA      0.083100
    133 H2         80.2734   52.8820   35.0592 da         1 CLA      0.180900
    134 H18        82.1019   60.3050   44.0701 dc         1 CLA     -0.003900
    135 H13        80.8882   55.3811   40.5875 dc         1 CLA      0.019700
    136 H12        78.8752   52.3035   32.7037 dc         1 CLA      0.120400
    137 H11        80.5303   52.3555   31.9726 dc         1 CLA      0.120400
    138 C1         67.6915   60.8194   49.0454 Z1         2 LUT      0.509236
    139 C2         66.2888   60.5906   49.7810 Z2         2 LUT     -0.434695
    140 C3         65.4059   61.7860   50.1195 Z3         2 LUT      0.437453
    141 O3         65.1182   62.0514   51.4881 S1         2 LUT     -0.547129
    142 C4         65.8332   63.0435   49.2932 Z4         2 LUT     -0.468603
    143 C5         66.5542   62.7703   47.9822 Z5         2 LUT      0.279246
    144 C6         67.5182   61.8485   47.8656 Z6         2 LUT     -0.305473
    145 C7         67.8047   61.4217   46.4342 Z7         2 LUT      0.069402
    146 C8         69.0713   61.5683   45.8875 Z8         2 LUT     -0.191631
    147 C9         69.4971   61.2496   44.5486 Z9         2 LUT      0.196698
    148 C10        70.4634   61.9439   43.9809 Y1         2 LUT     -0.208611
    149 C11        71.0655   61.8298   42.6236 Y2         2 LUT      0.030784
    150 C12        72.2232   62.4275   42.1601 Y3         2 LUT     -0.220316
    151 C13        73.0346   62.2891   40.9105 Y4         2 LUT      0.215937
    152 C14        74.2272   63.0063   40.7883 Y5         2 LUT     -0.185793
    153 C15        75.2471   62.8467   39.8326 Y6         2 LUT     -0.057835
    154 C16        68.3087   59.4603   48.6527 Y7         2 LUT     -0.405615
    155 C17        68.7255   61.4869   50.0654 Y7         2 LUT     -0.405615
    156 C18        65.8392   63.4925   46.7768 Y9         2 LUT     -0.369639
    157 C19        68.8337   60.1559   43.8239 W1         2 LUT     -0.333362
    158 C20        72.4428   61.4163   39.8358 W2         2 LUT     -0.323439
    159 C21        86.5310   64.2729   33.4113 Z1         2 LUT      0.406104
    160 C22        87.3456   63.8067   32.1349 Z2         2 LUT     -0.404965
    161 C23        87.5651   65.0033   31.2235 Z3         2 LUT      0.391255
    162 O23        88.4875   64.6135   30.2041 S1         2 LUT     -0.528210
    163 C24        86.2698   65.5700   30.7729 W6         2 LUT     -0.258361
    164 C25        85.2038   65.6138   31.5375 Z5         2 LUT      0.133546
    165 C26        85.1897   64.9149   32.9534 W8         2 LUT     -0.147008
    166 C27        84.3919   65.4658   34.0972 Z7         2 LUT      0.023843
    167 C28        83.3112   64.8192   34.7366 Z8         2 LUT     -0.216987
    168 C29        82.7579   65.2437   36.0718 Z9         2 LUT      0.206524
    169 C30        81.5728   64.6556   36.4132 Y1         2 LUT     -0.215556
    170 C31        80.8074   64.7731   37.5824 Y2         2 LUT      0.025142
    171 C32        79.6528   64.0529   37.8678 Y3         2 LUT     -0.212209
    172 C33        78.7051   64.2417   38.9043 Y4         2 LUT      0.240937
    173 C34        77.5376   63.4142   38.9958 Y5         2 LUT     -0.218862
    174 C35        76.4151   63.5294   39.9151 Y6         2 LUT     -0.023547
    175 C36        87.4706   65.0854   34.2865 Y7         2 LUT     -0.393485
    176 C37        86.3816   62.9750   34.3159 Y7         2 LUT     -0.393485
    177 C38        83.9414   66.2962   31.1675 Y9         2 LUT     -0.387526
    178 C39        83.3871   66.2683   37.0629 W1         2 LUT     -0.322618
    179 C40        79.2762   64.9884   40.0905 W2         2 LUT     -0.358472
    180 H403       78.5334   65.1588   40.8883 R7         2 LUT      0.097720
    181 H402       80.0926   64.4659   40.6035 R7         2 LUT      0.097720
    182 H401       79.5951   65.9959   39.8775 R7         2 LUT      0.097720
    183 H393       84.4776   66.3048   36.8552 R4         2 LUT      0.082505
    184 H392       83.0688   67.2442   36.9504 R4         2 LUT      0.082505
    185 H391       83.3338   65.8838   38.0452 R4         2 LUT      0.082505
    186 H383       84.1341   67.1572   30.6233 R1         2 LUT      0.104030
    187 H382       83.1811   65.5920   30.5876 R1         2 LUT      0.104030
    188 H381       83.3843   66.7449   32.0209 R1         2 LUT      0.104030
    189 H373       85.8324   62.1535   33.9211 T4         2 LUT      0.089537
    190 H372       87.2778   62.3760   34.3995 T4         2 LUT      0.089537
    191 H371       86.0265   63.1075   35.3010 T4         2 LUT      0.089537
    192 H363       88.4490   64.6517   34.4530 T4         2 LUT      0.089537
    193 H362       87.7196   65.9737   33.7600 T4         2 LUT      0.089537
    194 H361       87.0884   65.5370   35.1911 T4         2 LUT      0.089537
    195 H222       88.3528   63.3997   32.2449 U2         2 LUT      0.127376
    196 H221       87.0065   62.9632   31.4572 U2         2 LUT      0.127376
    197 H203       72.1921   62.0678   39.0276 R7         2 LUT      0.087068
    198 H202       73.2184   60.6273   39.4725 R7         2 LUT      0.087068
    199 H201       71.5168   60.8236   39.9824 R7         2 LUT      0.087068
    200 H193       68.4614   59.2952   44.4369 R4         2 LUT      0.089716
    201 H192       67.9786   60.4065   43.3161 R4         2 LUT      0.089716
    202 H191       69.4907   59.6104   43.0619 R4         2 LUT      0.089716
    203 H183       64.7496   63.2278   46.7570 R1         2 LUT      0.094572
    204 H182       65.9479   64.6062   46.8732 R1         2 LUT      0.094572
    205 H181       66.2673   63.2157   45.8148 R1         2 LUT      0.094572
    206 H173       69.6034   61.9538   49.5274 T4         2 LUT      0.093752
    207 H172       68.3209   62.4410   50.4735 T4         2 LUT      0.093752
    208 H171       69.1294   60.8708   50.8783 T4         2 LUT      0.093752
    209 H163       68.7392   58.8795   49.5675 T4         2 LUT      0.093752
    210 H162       67.6007   58.8588   48.0747 T4         2 LUT      0.093752
    211 H161       69.1350   59.6026   47.9481 T4         2 LUT      0.093752
    212 HO3        65.9237   62.2601   52.0168 Q1         2 LUT      0.300121
    213 H8         69.7420   62.0466   46.6183 U7         2 LUT      0.080784
    214 H7         67.0455   61.0540   45.7885 U6         2 LUT      0.042190
    215 H42        64.9634   63.6699   49.1081 U5         2 LUT      0.145166
    216 H41        66.3998   63.7585   49.9261 U5         2 LUT      0.145166
    217 H35        76.5494   64.1765   40.7520 T3         2 LUT      0.077919
    218 H34        77.4180   62.6175   38.2410 T2         2 LUT      0.073626
    219 H32        79.2184   63.3598   37.1750 T1         2 LUT      0.092510
    220 H31        81.1455   65.5889   38.2490 U9         2 LUT      0.070048
    221 H30        81.0624   63.9956   35.7859 U8         2 LUT      0.085442
    222 H3         64.4742   61.4640   49.7296 U3         2 LUT     -0.031596
    223 H28        82.8139   63.9807   34.3187 U7         2 LUT      0.084728
    224 H27        84.7185   66.3926   34.6140 U6         2 LUT      0.087291
    225 H26        84.5643   64.0463   32.6727 Q6         2 LUT      0.075325
    226 H24        86.2236   66.0759   29.7833 Q5         2 LUT      0.094482
    227 H23        88.0290   65.8104   31.8206 U3         2 LUT     -0.024869
    228 H22        65.7565   60.0245   49.0068 U2         2 LUT      0.127376
    229 H21        66.2762   59.9838   50.6529 U2         2 LUT      0.127376
    230 H15        75.1061   62.0695   39.0261 T3         2 LUT      0.093200
    231 H14        74.6376   63.4542   41.5937 T2         2 LUT      0.068865
    232 H12        72.6268   63.1734   42.8964 T1         2 LUT      0.095507
    233 H11        70.4402   61.2208   41.9689 U9         2 LUT      0.068930
    234 H10        70.9501   62.6078   44.6826 U8         2 LUT      0.083911
    235 H1         88.1254   64.1316   29.4607 Q1         2 LUT      0.297311
@<TRIPOS>BOND
    1     6     1 1
    2     7     2 1
    3     8     3 1
    4     9     4 1
    5    11     4 1
    6    12     6 1
    7    13     9 1
    8    16     9 1
    9    25     5 1
   10    25    16 1
   11    26    10 1
   12    26    17 1
   13    27    18 1
   14    28    14 1
   15    28    19 1
   16    29    12 1
   17    30    13 1
   18    31    24 1
   19    32     1 1
   20    32    25 1
   21    33    21 1
   22    33    26 1
   23    34    22 1
   24    34    27 1
   25    35    23 1
   26    35    28 1
   27    36    12 1
   28    36    24 1
   29    37    13 1
   30    37    15 1
   31    38    31 1
   32    39    20 1
   33    39    32 1
   34    40     2 1
   35    40    33 1
   36    41     3 1
   37    41    34 1
   38    42     4 1
   39    42    35 1
   40    43    38 1
   41    44     5 1
   42    44    17 1
   43    44    39 1
   44    45    10 1
   45    45    18 1
   46    45    40 1
   47    46    19 1
   48    46    41 1
   49    47    14 1
   50    47    16 1
   51    47    42 1
   52    48    38 1
   53    49    48 1
   54    50    49 1
   55    51    50 1
   56    52    51 1
   57    53    51 1
   58    54    53 1
   59    55    54 1
   60    56    55 1
   61    57    56 1
   62    58    56 1
   63    59    58 1
   64    60    59 1
   65    61    60 1
   66    62    61 1
   67    63    61 1
   68    64    27 1
   69    64    46 1
   70    65     5 1
   71    65    10 1
   72    65    64 1
   73    65    14 1
   74    66    23 1
   75    67    23 1
   76    68    23 1
   77    69    22 1
   78    70    22 1
   79    71    22 1
   80    72    21 1
   81    73    21 1
   82    74    21 1
   83    75    20 1
   84    76    20 1
   85    77    20 1
   86    78    15 1
   87    79    15 1
   88    80    15 1
   89    81     8 1
   90    82     8 1
   91    83     8 1
   92    84     7 1
   93    85     7 1
   94    86     6 1
   95    87     6 1
   96    88     3 1
   97    89     3 1
   98    90     1 1
   99    91     1 1
  100    92    63 1
  101    93    63 1
  102    94    63 1
  103    95    62 1
  104    96    62 1
  105    97    62 1
  106    98    60 1
  107    99    60 1
  108   100    59 1
  109   101    59 1
  110   102    58 1
  111   103    58 1
  112   104    57 1
  113   105    57 1
  114   106    57 1
  115   107    55 1
  116   108    55 1
  117   109    54 1
  118   110    54 1
  119   111    53 1
  120   112    53 1
  121   113    19 1
  122   114    18 1
  123   115    17 1
  124   116     9 1
  125   117     2 1
  126   118    52 1
  127   119    52 1
  128   120    52 1
  129   121    51 1
  130   122    50 1
  131   123    50 1
  132   124    49 1
  133   125    49 1
  134   126    48 1
  135   127    48 1
  136   128    43 1
  137   129    43 1
  138   130    43 1
  139   131    39 1
  140   132    32 1
  141   133    31 1
  142   134    61 1
  143   135    56 1
  144   136    24 1
  145   137    24 1
  146   139   138 1
  147   140   139 1
  148   141   140 1
  149   142   140 1
  150   143   142 1
  151   144   138 1
  152   144   143 1
  153   145   144 1
  154   146   145 1
  155   147   146 1
  156   148   147 1
  157   149   148 1
  158   150   149 1
  159   151   150 1
  160   152   151 1
  161   153   152 1
  162   154   138 1
  163   155   138 1
  164   156   143 1
  165   157   147 1
  166   158   151 1
  167   160   159 1
  168   161   160 1
  169   162   161 1
  170   163   161 1
  171   164   163 1
  172   165   159 1
  173   165   164 1
  174   166   165 1
  175   167   166 1
  176   168   167 1
  177   169   168 1
  178   170   169 1
  179   171   170 1
  180   172   171 1
  181   173   172 1
  182   174   153 1
  183   174   173 1
  184   175   159 1
  185   176   159 1
  186   177   164 1
  187   178   168 1
  188   179   172 1
  189   180   179 1
  190   181   179 1
  191   182   179 1
  192   183   178 1
  193   184   178 1
  194   185   178 1
  195   186   177 1
  196   187   177 1
  197   188   177 1
  198   189   176 1
  199   190   176 1
  200   191   176 1
  201   192   175 1
  202   193   175 1
  203   194   175 1
  204   195   160 1
  205   196   160 1
  206   197   158 1
  207   198   158 1
  208   199   158 1
  209   200   157 1
  210   201   157 1
  211   202   157 1
  212   203   156 1
  213   204   156 1
  214   205   156 1
  215   206   155 1
  216   207   155 1
  217   208   155 1
  218   209   154 1
  219   210   154 1
  220   211   154 1
  221   212   141 1
  222   213   146 1
  223   214   145 1
  224   215   142 1
  225   216   142 1
  226   217   174 1
  227   218   173 1
  228   219   171 1
  229   220   170 1
  230   221   169 1
  231   222   140 1
  232   223   167 1
  233   224   166 1
  234   225   165 1
  235   226   163 1
  236   227   161 1
  237   228   139 1
  238   229   139 1
  239   230   153 1
  240   231   152 1
  241   232   150 1
  242   233   149 1
  243   234   148 1
  244   235   162 1
  245   65    153 1
  246   65    174 1
@<TRIPOS>SUBSTRUCTURE
      1 CLA               1 ****               0 ****  **** 
      2 LUT             138 ****               0 ****  **** 
