@<TRIPOS>MOLECULE
Cpptraj generated mol2 file.
  235   246     2     0     0
SMALL
USER_CHARGES


@<TRIPOS>ATOM
      1 CAA        77.4730   59.3039   35.4607 a2         1 CLA     -0.055900
      2 CAB        77.0237   63.1043   44.4365 c8         1 CLA     -0.148500
      3 CAC        70.7506   58.1446   43.8093 a2         1 CLA     -0.012600
      4 CAD        73.9016   56.1198   36.7249 ck         1 CLA      0.398800
      5 NA         76.4608   59.6422   38.8104 ns         1 CLA     -0.225500
      6 CBA        78.6687   59.3240   34.5405 a2         1 CLA     -0.135000
      7 CBB        76.9670   62.4053   45.5788 c0         1 CLA     -0.395200
      8 CBC        71.0150   56.6479   43.9531 a3         1 CLA     -0.037700
      9 CBD        75.2656   56.8272   36.4073 a1         1 CLA     -0.053900
     10 NB         76.1406   61.2049   41.4125 nm         1 CLA     -0.295700
     11 OBD        73.4278   55.1930   36.0742 o2         1 CLA     -0.494600
     12 CGA        79.3223   58.0956   34.0323 c4         1 CLA      0.827000
     13 CGD        76.3649   55.7955   36.2738 c4         1 CLA      0.655300
     14 ND         73.8071   58.3921   39.4643 nm         1 CLA     -0.291600
     15 CED        77.3471   53.8363   37.4356 a3         1 CLA      0.005400
     16 CHA        75.4049   57.8706   37.4872 cs         1 CLA     -0.123800
     17 CHB        78.0442   61.2146   39.9046 aa         1 CLA     -0.291900
     18 CHC        74.6443   61.3861   43.3380 aa         1 CLA     -0.090400
     19 CHD        72.0424   58.0064   41.0768 aa         1 CLA     -0.052000
     20 CMA        79.9526   59.1684   38.3129 a3         1 CLA     -0.230700
     21 CMB        79.2045   63.2652   42.0028 a3         1 CLA     -0.180800
     22 CMC        72.4902   60.4829   45.5112 a3         1 CLA     -0.134000
     23 CMD        70.9952   56.2511   38.7143 a3         1 CLA     -0.141100
     24 C1         80.2781   55.9713   34.6632 a2         1 CLA      0.023000
     25 C1A        76.4351   58.7700   37.7700 ac         1 CLA     -0.015100
     26 C1B        77.3184   61.6623   41.0863 cr         1 CLA      0.054700
     27 C1C        73.7074   60.4028   43.0852 cn         1 CLA     -0.005600
     28 C1D        72.6295   57.8347   39.7810 ap         1 CLA     -0.047300
     29 O1A        79.3774   57.7116   32.8465 o2         1 CLA     -0.610800
     30 O1D        77.2821   55.8866   35.4692 o2         1 CLA     -0.558200
     31 C2         80.8918   55.2740   35.7758 c8         1 CLA     -0.325100
     32 C2A        77.7374   58.8878   36.9951 a1         1 CLA      0.098600
     33 C2B        77.8990   62.5275   42.1396 cb         1 CLA      0.088500
     34 C2C        72.6670   59.9472   44.0514 cb         1 CLA      0.053700
     35 C2D        72.3273   56.8803   38.7221 cb         1 CLA      0.058900
     36 O2A        79.9496   57.3479   35.0012 o1         1 CLA     -0.437200
     37 O2D        76.3157   54.8944   37.2788 o1         1 CLA     -0.357600
     38 C3         82.1614   55.2182   36.0878 c5         1 CLA      0.031200
     39 C3A        78.6484   59.8136   37.8116 a1         1 CLA      0.166800
     40 C3B        76.9011   62.4922   43.1364 cb         1 CLA      0.035000
     41 C3C        71.9661   58.9438   43.3761 cb         1 CLA     -0.089900
     42 C3D        73.3663   56.7644   37.8568 cb         1 CLA     -0.035900
     43 C4         83.0031   53.9728   35.7352 a3         1 CLA     -0.053300
     44 C4A        77.6999   60.2721   38.8900 ac         1 CLA      0.001800
     45 C4B        75.7534   61.6819   42.6507 cn         1 CLA     -0.020900
     46 C4C        72.5608   58.8509   42.1027 cr         1 CLA     -0.044400
     47 C4D        74.2820   57.7887   38.3318 c6         1 CLA     -0.046000
     48 C5         82.6544   56.2656   37.0380 a2         1 CLA     -0.070400
     49 C6         83.9021   55.8109   37.8891 a2         1 CLA      0.043900
     50 C7         84.1758   56.7594   39.1379 a2         1 CLA     -0.150000
     51 C8         84.3016   58.3243   38.7944 a1         1 CLA      0.064200
     52 C9         85.3799   58.6790   37.7179 a3         1 CLA     -0.259300
     53 C10        84.6153   59.0770   40.1547 a2         1 CLA     -0.071900
     54 C11        83.5348   58.9978   41.2758 a2         1 CLA      0.014500
     55 C12        83.5708   60.1406   42.3271 a2         1 CLA     -0.112100
     56 C13        84.9072   60.2674   43.0682 a1         1 CLA      0.089200
     57 C14        85.1955   58.9798   43.9046 a3         1 CLA     -0.239100
     58 C15        84.8538   61.4875   44.0009 a2         1 CLA     -0.102200
     59 C16        83.6147   61.6395   44.9050 a2         1 CLA      0.023900
     60 C17        83.8360   62.4709   46.1381 a2         1 CLA     -0.105700
     61 C18        82.5536   62.6868   47.0265 a1         1 CLA      0.206800
     62 C19        82.8090   63.7342   48.0958 a3         1 CLA     -0.280100
     63 C20        81.2326   63.0000   46.2782 a3         1 CLA     -0.280100
     64 NC         73.5596   59.7737   41.9136 nx         1 CLA     -0.309200
     65 MG         74.9142   59.9083   40.3306 mg         1 CLA      0.895000
     66 HMD3       71.0362   55.4092   38.0228 dc         1 CLA      0.064300
     67 HMD2       70.7741   55.7026   39.6138 dc         1 CLA      0.064300
     68 HMD1       70.1758   56.9958   38.4503 dc         1 CLA      0.064300
     69 HMC3       73.0927   59.9237   46.2375 dc         1 CLA      0.052100
     70 HMC2       72.7503   61.5503   45.5613 dc         1 CLA      0.052100
     71 HMC1       71.5170   60.3174   45.9155 dc         1 CLA      0.052100
     72 HMB3       80.0871   62.6722   42.3916 dc         1 CLA      0.063600
     73 HMB2       79.3644   63.6440   41.0033 dc         1 CLA      0.063600
     74 HMB1       79.2576   64.1224   42.6724 dc         1 CLA      0.063600
     75 HMA3       79.5068   58.2820   38.7854 dc         1 CLA      0.058300
     76 HMA2       80.5866   58.9521   37.4969 dc         1 CLA      0.058300
     77 HMA1       80.5002   59.7988   38.9287 dc         1 CLA      0.058300
     78 HED3       76.9435   53.3296   38.3055 dc         1 CLA      0.079300
     79 HED2       77.4285   53.1821   36.5510 dc         1 CLA      0.079300
     80 HED1       78.2939   54.3108   37.6294 dc         1 CLA      0.079300
     81 HBC3       70.0305   56.1595   43.9498 dc         1 CLA      0.016300
     82 HBC2       71.6649   56.1909   43.2694 dc         1 CLA      0.016300
     83 HBC1       71.4085   56.4746   44.9453 dc         1 CLA      0.016300
     84 HBB2       77.2145   62.8286   46.5501 da         1 CLA      0.183000
     85 HBB1       76.7651   61.3051   45.5665 da         1 CLA      0.183000
     86 HBA2       78.4425   59.8946   33.6754 dc         1 CLA      0.029400
     87 HBA1       79.5134   59.7948   35.1319 dc         1 CLA      0.029400
     88 HAC2       70.1599   58.7029   44.6205 dc         1 CLA      0.029300
     89 HAC1       70.0649   58.1219   42.9448 dc         1 CLA      0.029300
     90 HAA2       76.6402   58.8124   34.9268 dc         1 CLA      0.028700
     91 HAA1       77.1694   60.3959   35.4665 dc         1 CLA      0.028700
     92 H203       81.4414   63.7520   45.5125 dc         1 CLA      0.065600
     93 H202       80.8935   62.0095   45.8470 dc         1 CLA      0.065600
     94 H201       80.5349   63.4044   47.0735 dc         1 CLA      0.065600
     95 H193       83.6423   63.4907   48.7666 dc         1 CLA      0.065600
     96 H192       83.2827   64.5878   47.7174 dc         1 CLA      0.065600
     97 H191       81.8869   63.9497   48.6955 dc         1 CLA      0.065600
     98 H172       84.6611   61.9976   46.7212 dc         1 CLA      0.027600
     99 H171       84.0912   63.5049   45.8708 dc         1 CLA      0.027600
    100 H162       82.8264   62.1484   44.3063 dc         1 CLA      0.002900
    101 H161       83.1884   60.6572   45.2794 dc         1 CLA      0.002900
    102 H152       85.7021   61.4767   44.7022 dc         1 CLA      0.029100
    103 H151       85.0355   62.3785   43.4334 dc         1 CLA      0.029100
    104 H143       84.4749   58.9046   44.7123 dc         1 CLA      0.063600
    105 H142       85.3079   58.0680   43.3936 dc         1 CLA      0.063600
    106 H141       86.1480   59.1876   44.4730 dc         1 CLA      0.063600
    107 H122       83.3599   61.1103   41.8841 dc         1 CLA      0.032500
    108 H121       82.7816   59.9924   42.9355 dc         1 CLA      0.032500
    109 H112       82.5565   59.0442   40.8589 dc         1 CLA      0.006600
    110 H111       83.5932   57.9960   41.5752 dc         1 CLA      0.006600
    111 H102       85.5304   58.6944   40.5690 dc         1 CLA      0.024100
    112 H101       84.6196   60.0454   39.8858 dc         1 CLA      0.024100
    113 HHD        71.1040   57.4481   41.3300 da         1 CLA      0.174300
    114 HHC        74.3673   61.8122   44.2769 da         1 CLA      0.136800
    115 HHB        79.0894   61.6014   39.7546 da         1 CLA      0.138300
    116 HBD        75.1923   57.2958   35.4280 dc         1 CLA      0.107700
    117 HAB        77.4017   64.0882   44.4773 da         1 CLA      0.155200
    118 H93        85.0363   58.4674   36.6963 dc         1 CLA      0.069500
    119 H92        85.5870   59.7660   37.7288 dc         1 CLA      0.069500
    120 H91        86.2457   58.1517   37.9648 dc         1 CLA      0.069500
    121 H8         83.3213   58.6717   38.4760 dc         1 CLA      0.029300
    122 H72        83.3398   56.6023   39.7881 dc         1 CLA      0.044400
    123 H71        85.0713   56.3551   39.6224 dc         1 CLA      0.044400
    124 H62        83.5542   54.8221   38.2270 dc         1 CLA      0.015600
    125 H61        84.7734   55.6970   37.2036 dc         1 CLA      0.015600
    126 H52        83.0784   57.1321   36.5737 dc         1 CLA      0.033200
    127 H51        81.7164   56.5114   37.6343 dc         1 CLA      0.033200
    128 H43        82.5378   53.4864   34.8797 dc         1 CLA      0.037000
    129 H42        83.9183   54.3124   35.2819 dc         1 CLA      0.037000
    130 H41        83.2178   53.3367   36.5688 dc         1 CLA      0.037000
    131 H3A        78.8999   60.8032   37.3372 dc         1 CLA      0.041100
    132 H2A        78.1866   57.8873   37.0541 dc         1 CLA      0.083100
    133 H2         80.1609   54.9868   36.5068 da         1 CLA      0.180900
    134 H18        82.1640   61.7538   47.5045 dc         1 CLA     -0.003900
    135 H13        85.7013   60.4181   42.3615 dc         1 CLA      0.019700
    136 H12        79.5969   55.2859   34.2138 dc         1 CLA      0.120400
    137 H11        81.0415   56.1244   33.8625 dc         1 CLA      0.120400
    138 C1         66.3878   62.3158   51.2448 Z1         2 LUT      0.509236
    139 C2         66.3450   63.5162   52.1006 Z2         2 LUT     -0.434695
    140 C3         65.0689   64.3494   52.0902 Z3         2 LUT      0.437453
    141 O3         65.3191   65.4757   52.8980 S1         2 LUT     -0.547129
    142 C4         64.7843   64.7046   50.6151 Z4         2 LUT     -0.468603
    143 C5         65.4271   63.9044   49.5652 Z5         2 LUT      0.279246
    144 C6         66.2036   62.8050   49.8260 Z6         2 LUT     -0.305473
    145 C7         67.1149   62.2926   48.6951 Z7         2 LUT      0.069402
    146 C8         67.9714   63.0044   47.9099 Z8         2 LUT     -0.191631
    147 C9         68.6910   62.5026   46.7347 Z9         2 LUT      0.196698
    148 C10        69.6354   63.3123   46.1496 Y1         2 LUT     -0.208611
    149 C11        70.2966   63.2420   44.8466 Y2         2 LUT      0.030784
    150 C12        71.2726   64.0768   44.4863 Y3         2 LUT     -0.220316
    151 C13        72.0892   64.0629   43.2972 Y4         2 LUT      0.215937
    152 C14        73.1917   64.8769   43.2471 Y5         2 LUT     -0.185793
    153 C15        74.2135   64.9149   42.2937 Y6         2 LUT     -0.057835
    154 C16        65.1326   61.4705   51.7562 Y7         2 LUT     -0.405615
    155 C17        67.8339   61.6081   51.3989 Y7         2 LUT     -0.405615
    156 C18        65.4402   64.6423   48.3026 Y9         2 LUT     -0.369639
    157 C19        68.4008   61.1562   46.1600 W1         2 LUT     -0.333362
    158 C20        71.8266   63.0595   42.2127 W2         2 LUT     -0.323439
    159 C21        86.0304   66.3307   36.5678 Z1         2 LUT      0.406104
    160 C22        86.7445   65.6778   35.3147 Z2         2 LUT     -0.404965
    161 C23        86.7284   66.5832   34.0515 Z3         2 LUT      0.391255
    162 O23        87.3394   65.8513   33.0249 S1         2 LUT     -0.528210
    163 C24        85.3819   67.1820   33.8135 W6         2 LUT     -0.258361
    164 C25        84.3656   67.3175   34.7069 Z5         2 LUT      0.133546
    165 C26        84.5012   66.5919   36.1180 W8         2 LUT     -0.147008
    166 C27        83.6205   67.3731   37.1582 Z7         2 LUT      0.023843
    167 C28        82.4309   66.8405   37.5738 Z8         2 LUT     -0.216987
    168 C29        81.6519   67.3425   38.7350 Z9         2 LUT      0.206524
    169 C30        80.4993   66.7113   39.0452 Y1         2 LUT     -0.215556
    170 C31        79.6327   66.7881   40.2037 Y2         2 LUT      0.025142
    171 C32        78.4055   66.2057   40.3967 Y3         2 LUT     -0.212209
    172 C33        77.6223   66.2148   41.5640 Y4         2 LUT      0.240937
    173 C34        76.3794   65.6234   41.5669 Y5         2 LUT     -0.218862
    174 C35        75.4520   65.4746   42.5676 Y6         2 LUT     -0.023547
    175 C36        86.8856   67.5185   37.1674 Y7         2 LUT     -0.393485
    176 C37        85.9100   65.2894   37.7549 Y7         2 LUT     -0.393485
    177 C38        83.1599   68.1605   34.3248 Y9         2 LUT     -0.387526
    178 C39        82.2045   68.4837   39.4930 W1         2 LUT     -0.322618
    179 C40        78.1406   67.0050   42.7556 W2         2 LUT     -0.358472
    180 H403       78.9608   66.4926   43.1357 R7         2 LUT      0.097720
    181 H402       78.4019   68.0230   42.5186 R7         2 LUT      0.097720
    182 H401       77.4041   67.0780   43.5928 R7         2 LUT      0.097720
    183 H393       82.5149   69.2311   38.7605 R4         2 LUT      0.082505
    184 H392       81.4320   68.9098   40.1887 R4         2 LUT      0.082505
    185 H391       83.1595   68.0967   39.9685 R4         2 LUT      0.082505
    186 H383       82.5534   68.4503   35.2755 R1         2 LUT      0.104030
    187 H382       83.4618   69.1281   33.8004 R1         2 LUT      0.104030
    188 H381       82.4546   67.6719   33.6604 R1         2 LUT      0.104030
    189 H373       86.8935   65.0661   38.1558 T4         2 LUT      0.089537
    190 H372       85.1841   65.5603   38.5559 T4         2 LUT      0.089537
    191 H371       85.5042   64.3025   37.3711 T4         2 LUT      0.089537
    192 H363       87.9098   67.2321   37.3907 T4         2 LUT      0.089537
    193 H362       86.9956   68.4615   36.5471 T4         2 LUT      0.089537
    194 H361       86.5464   67.8543   38.0979 T4         2 LUT      0.089537
    195 H222       87.7830   65.4176   35.6334 U2         2 LUT      0.127376
    196 H221       86.0815   64.8332   35.0485 U2         2 LUT      0.127376
    197 H203       72.7068   62.7364   41.6041 R7         2 LUT      0.087068
    198 H202       71.5083   62.1388   42.7428 R7         2 LUT      0.087068
    199 H201       71.0224   63.2746   41.4908 R7         2 LUT      0.087068
    200 H193       67.3783   61.0987   45.7588 R4         2 LUT      0.089716
    201 H192       69.1509   60.9702   45.3626 R4         2 LUT      0.089716
    202 H191       68.4653   60.3526   46.8357 R4         2 LUT      0.089716
    203 H183       65.6901   64.0552   47.4007 R1         2 LUT      0.094572
    204 H182       64.4741   65.0759   48.0775 R1         2 LUT      0.094572
    205 H181       66.1549   65.4870   48.2971 R1         2 LUT      0.094572
    206 H173       68.0708   61.3966   52.4700 T4         2 LUT      0.093752
    207 H172       68.0366   60.6355   50.9165 T4         2 LUT      0.093752
    208 H171       68.5912   62.2576   51.1127 T4         2 LUT      0.093752
    209 H163       65.1514   60.5634   51.2097 T4         2 LUT      0.093752
    210 H162       65.2016   61.3792   52.8086 T4         2 LUT      0.093752
    211 H161       64.1568   61.9590   51.6053 T4         2 LUT      0.093752
    212 HO3        64.4993   65.9305   53.0958 Q1         2 LUT      0.300121
    213 H8         68.2627   64.0737   47.9666 U7         2 LUT      0.080784
    214 H7         67.1005   61.2223   48.5856 U6         2 LUT      0.042190
    215 H42        63.6816   64.5970   50.3884 U5         2 LUT      0.145166
    216 H41        64.9397   65.8015   50.5274 U5         2 LUT      0.145166
    217 H35        75.6250   65.9968   43.5075 T3         2 LUT      0.077919
    218 H34        76.0668   65.0910   40.7044 T2         2 LUT      0.073626
    219 H32        77.9426   65.7422   39.4819 T1         2 LUT      0.092510
    220 H31        80.0625   67.3391   40.9834 U9         2 LUT      0.070048
    221 H30        80.2323   65.8560   38.4706 U8         2 LUT      0.085442
    222 H3         64.2406   63.7748   52.5798 U3         2 LUT     -0.031596
    223 H28        82.1500   65.8875   37.2675 U7         2 LUT      0.084728
    224 H27        84.0605   68.3225   37.5174 U6         2 LUT      0.087291
    225 H26        83.9420   65.6476   35.8938 Q6         2 LUT      0.075325
    226 H24        85.3469   67.7433   32.8840 Q5         2 LUT      0.094482
    227 H23        87.4387   67.3309   34.4998 U3         2 LUT     -0.024869
    228 H22        66.5972   63.2525   53.0942 U2         2 LUT      0.127376
    229 H21        67.1379   64.1667   51.7852 U2         2 LUT      0.127376
    230 H15        74.0861   64.4760   41.3429 T3         2 LUT      0.093200
    231 H14        73.4136   65.5153   44.1261 T2         2 LUT      0.068865
    232 H12        71.4187   64.8369   45.2382 T1         2 LUT      0.095507
    233 H11        70.0191   62.3450   44.2494 U9         2 LUT      0.068930
    234 H10        69.9602   64.2476   46.6455 U8         2 LUT      0.083911
    235 H1         86.7429   65.3816   32.4270 Q1         2 LUT      0.297311
@<TRIPOS>BOND
    1     6     1 1
    2     7     2 1
    3     8     3 1
    4     9     4 1
    5    11     4 1
    6    12     6 1
    7    13     9 1
    8    16     9 1
    9    25     5 1
   10    25    16 1
   11    26    10 1
   12    26    17 1
   13    27    18 1
   14    28    14 1
   15    28    19 1
   16    29    12 1
   17    30    13 1
   18    31    24 1
   19    32     1 1
   20    32    25 1
   21    33    21 1
   22    33    26 1
   23    34    22 1
   24    34    27 1
   25    35    23 1
   26    35    28 1
   27    36    12 1
   28    36    24 1
   29    37    13 1
   30    37    15 1
   31    38    31 1
   32    39    20 1
   33    39    32 1
   34    40     2 1
   35    40    33 1
   36    41     3 1
   37    41    34 1
   38    42     4 1
   39    42    35 1
   40    43    38 1
   41    44     5 1
   42    44    17 1
   43    44    39 1
   44    45    10 1
   45    45    18 1
   46    45    40 1
   47    46    19 1
   48    46    41 1
   49    47    14 1
   50    47    16 1
   51    47    42 1
   52    48    38 1
   53    49    48 1
   54    50    49 1
   55    51    50 1
   56    52    51 1
   57    53    51 1
   58    54    53 1
   59    55    54 1
   60    56    55 1
   61    57    56 1
   62    58    56 1
   63    59    58 1
   64    60    59 1
   65    61    60 1
   66    62    61 1
   67    63    61 1
   68    64    27 1
   69    64    46 1
   70    65     5 1
   71    65    10 1
   72    65    64 1
   73    65    14 1
   74    66    23 1
   75    67    23 1
   76    68    23 1
   77    69    22 1
   78    70    22 1
   79    71    22 1
   80    72    21 1
   81    73    21 1
   82    74    21 1
   83    75    20 1
   84    76    20 1
   85    77    20 1
   86    78    15 1
   87    79    15 1
   88    80    15 1
   89    81     8 1
   90    82     8 1
   91    83     8 1
   92    84     7 1
   93    85     7 1
   94    86     6 1
   95    87     6 1
   96    88     3 1
   97    89     3 1
   98    90     1 1
   99    91     1 1
  100    92    63 1
  101    93    63 1
  102    94    63 1
  103    95    62 1
  104    96    62 1
  105    97    62 1
  106    98    60 1
  107    99    60 1
  108   100    59 1
  109   101    59 1
  110   102    58 1
  111   103    58 1
  112   104    57 1
  113   105    57 1
  114   106    57 1
  115   107    55 1
  116   108    55 1
  117   109    54 1
  118   110    54 1
  119   111    53 1
  120   112    53 1
  121   113    19 1
  122   114    18 1
  123   115    17 1
  124   116     9 1
  125   117     2 1
  126   118    52 1
  127   119    52 1
  128   120    52 1
  129   121    51 1
  130   122    50 1
  131   123    50 1
  132   124    49 1
  133   125    49 1
  134   126    48 1
  135   127    48 1
  136   128    43 1
  137   129    43 1
  138   130    43 1
  139   131    39 1
  140   132    32 1
  141   133    31 1
  142   134    61 1
  143   135    56 1
  144   136    24 1
  145   137    24 1
  146   139   138 1
  147   140   139 1
  148   141   140 1
  149   142   140 1
  150   143   142 1
  151   144   138 1
  152   144   143 1
  153   145   144 1
  154   146   145 1
  155   147   146 1
  156   148   147 1
  157   149   148 1
  158   150   149 1
  159   151   150 1
  160   152   151 1
  161   153   152 1
  162   154   138 1
  163   155   138 1
  164   156   143 1
  165   157   147 1
  166   158   151 1
  167   160   159 1
  168   161   160 1
  169   162   161 1
  170   163   161 1
  171   164   163 1
  172   165   159 1
  173   165   164 1
  174   166   165 1
  175   167   166 1
  176   168   167 1
  177   169   168 1
  178   170   169 1
  179   171   170 1
  180   172   171 1
  181   173   172 1
  182   174   153 1
  183   174   173 1
  184   175   159 1
  185   176   159 1
  186   177   164 1
  187   178   168 1
  188   179   172 1
  189   180   179 1
  190   181   179 1
  191   182   179 1
  192   183   178 1
  193   184   178 1
  194   185   178 1
  195   186   177 1
  196   187   177 1
  197   188   177 1
  198   189   176 1
  199   190   176 1
  200   191   176 1
  201   192   175 1
  202   193   175 1
  203   194   175 1
  204   195   160 1
  205   196   160 1
  206   197   158 1
  207   198   158 1
  208   199   158 1
  209   200   157 1
  210   201   157 1
  211   202   157 1
  212   203   156 1
  213   204   156 1
  214   205   156 1
  215   206   155 1
  216   207   155 1
  217   208   155 1
  218   209   154 1
  219   210   154 1
  220   211   154 1
  221   212   141 1
  222   213   146 1
  223   214   145 1
  224   215   142 1
  225   216   142 1
  226   217   174 1
  227   218   173 1
  228   219   171 1
  229   220   170 1
  230   221   169 1
  231   222   140 1
  232   223   167 1
  233   224   166 1
  234   225   165 1
  235   226   163 1
  236   227   161 1
  237   228   139 1
  238   229   139 1
  239   230   153 1
  240   231   152 1
  241   232   150 1
  242   233   149 1
  243   234   148 1
  244   235   162 1
  245   65    153 1
  246   65    174 1
@<TRIPOS>SUBSTRUCTURE
      1 CLA               1 ****               0 ****  **** 
      2 LUT             138 ****               0 ****  **** 
