@<TRIPOS>MOLECULE
Cpptraj generated mol2 file.
  235   246     2     0     0
SMALL
USER_CHARGES


@<TRIPOS>ATOM
      1 CAA        79.2367   59.5130   34.1805 a2         1 CLA     -0.055900
      2 CAB        78.8973   62.5935   43.4202 c8         1 CLA     -0.148500
      3 CAC        72.3004   57.9994   42.5694 a2         1 CLA     -0.012600
      4 CAD        75.2710   56.3710   35.2735 ck         1 CLA      0.398800
      5 NA         78.1728   59.5081   37.5495 ns         1 CLA     -0.225500
      6 CBA        80.4745   59.6180   33.3109 a2         1 CLA     -0.135000
      7 CBB        80.0732   62.7644   44.0985 c0         1 CLA     -0.395200
      8 CBC        72.6993   56.4646   42.7723 a3         1 CLA     -0.037700
      9 CBD        76.7532   56.9176   34.9857 a1         1 CLA     -0.053900
     10 NB         77.8196   60.9056   40.2648 nm         1 CLA     -0.295700
     11 OBD        74.6941   55.5856   34.5514 o2         1 CLA     -0.494600
     12 CGA        81.2936   58.4212   32.7966 c4         1 CLA      0.827000
     13 CGD        77.7469   55.7640   34.9867 c4         1 CLA      0.655300
     14 ND         75.4408   58.3719   38.1413 nm         1 CLA     -0.291600
     15 CED        78.3537   53.8222   36.1634 a3         1 CLA      0.005400
     16 CHA        76.9319   57.9822   36.1021 cs         1 CLA     -0.123800
     17 CHB        79.8315   60.7679   38.8285 aa         1 CLA     -0.291900
     18 CHC        76.4745   60.9183   42.3697 aa         1 CLA     -0.090400
     19 CHD        73.4465   58.1673   39.6503 aa         1 CLA     -0.052000
     20 CMA        81.7694   58.9727   36.9570 a3         1 CLA     -0.230700
     21 CMB        81.1256   62.3763   41.0925 a3         1 CLA     -0.180800
     22 CMC        74.3774   59.8549   44.3840 a3         1 CLA     -0.134000
     23 CMD        72.5128   56.2164   37.2294 a3         1 CLA     -0.141100
     24 C1         82.4243   56.4086   33.6288 a2         1 CLA      0.023000
     25 C1A        78.0870   58.7836   36.3842 ac         1 CLA     -0.015100
     26 C1B        79.1032   61.2659   39.9095 cr         1 CLA      0.054700
     27 C1C        75.4620   60.0177   42.0491 cn         1 CLA     -0.005600
     28 C1D        74.1374   57.8351   38.3909 ap         1 CLA     -0.047300
     29 O1A        81.5297   58.1641   31.6133 o2         1 CLA     -0.610800
     30 O1D        78.6961   55.6261   34.1541 o2         1 CLA     -0.558200
     31 C2         82.7243   55.9263   35.0461 c8         1 CLA     -0.325100
     32 C2A        79.4192   58.7873   35.5970 a1         1 CLA      0.098600
     33 C2B        79.7018   61.9079   41.0785 cb         1 CLA      0.088500
     34 C2C        74.4246   59.4927   42.9590 cb         1 CLA      0.053700
     35 C2D        73.7176   57.0097   37.3186 cb         1 CLA      0.058900
     36 O2A        81.6925   57.6486   33.8828 o1         1 CLA     -0.437200
     37 O2D        77.4653   54.9625   36.0362 o1         1 CLA     -0.357600
     38 C3         83.2045   54.7662   35.4449 c5         1 CLA      0.031200
     39 C3A        80.3942   59.6004   36.5552 a1         1 CLA      0.166800
     40 C3B        78.7768   61.9660   42.0912 cb         1 CLA      0.035000
     41 C3C        73.5555   58.8335   42.1021 cb         1 CLA     -0.089900
     42 C3D        74.8303   57.0333   36.4622 cb         1 CLA     -0.035900
     43 C4         82.3280   53.5860   35.8716 a3         1 CLA     -0.053300
     44 C4A        79.3929   59.9576   37.7527 ac         1 CLA      0.001800
     45 C4B        77.6333   61.2679   41.5607 cn         1 CLA     -0.020900
     46 C4C        74.0736   58.8553   40.7374 cr         1 CLA     -0.044400
     47 C4D        75.8349   57.7902   36.9811 c6         1 CLA     -0.046000
     48 C5         84.6687   54.5441   35.4833 a2         1 CLA     -0.070400
     49 C6         85.4968   55.7134   36.0473 a2         1 CLA      0.043900
     50 C7         85.4319   55.7568   37.6176 a2         1 CLA     -0.150000
     51 C8         85.9725   57.0503   38.2660 a1         1 CLA      0.064200
     52 C9         87.3505   57.4501   37.7312 a3         1 CLA     -0.259300
     53 C10        85.9705   56.8774   39.7665 a2         1 CLA     -0.071900
     54 C11        86.1301   58.1444   40.6276 a2         1 CLA      0.014500
     55 C12        86.4582   57.7655   42.0826 a2         1 CLA     -0.112100
     56 C13        86.5906   58.9504   43.0334 a1         1 CLA      0.089200
     57 C14        87.8247   59.7965   42.6725 a3         1 CLA     -0.239100
     58 C15        86.6063   58.4783   44.5362 a2         1 CLA     -0.102200
     59 C16        85.2504   58.0957   45.1263 a2         1 CLA      0.023900
     60 C17        85.1884   57.8657   46.6864 a2         1 CLA     -0.105700
     61 C18        85.3363   59.0957   47.5885 a1         1 CLA      0.206800
     62 C19        84.1918   60.0901   47.3132 a3         1 CLA     -0.280100
     63 C20        85.2828   58.4786   49.0200 a3         1 CLA     -0.280100
     64 NC         75.2956   59.5132   40.7810 nx         1 CLA     -0.309200
     65 MG         76.5862   59.7226   39.1299 mg         1 CLA      0.895000
     66 HMD3       71.6387   56.7590   36.8307 dc         1 CLA      0.064300
     67 HMD2       72.7571   55.2735   36.7733 dc         1 CLA      0.064300
     68 HMD1       72.3255   55.9667   38.2557 dc         1 CLA      0.064300
     69 HMC3       73.7654   59.1070   44.8951 dc         1 CLA      0.052100
     70 HMC2       75.3743   59.9792   44.8048 dc         1 CLA      0.052100
     71 HMC1       73.9025   60.7921   44.6019 dc         1 CLA      0.052100
     72 HMB3       81.5116   62.4538   40.1222 dc         1 CLA      0.063600
     73 HMB2       81.2684   63.3786   41.5280 dc         1 CLA      0.063600
     74 HMB1       81.6356   61.6989   41.6618 dc         1 CLA      0.063600
     75 HMA3       81.4798   58.0442   37.4846 dc         1 CLA      0.058300
     76 HMA2       82.4770   58.8265   36.0616 dc         1 CLA      0.058300
     77 HMA1       82.3240   59.6795   37.5887 dc         1 CLA      0.058300
     78 HED3       78.0424   53.1449   36.9509 dc         1 CLA      0.079300
     79 HED2       78.4567   53.3404   35.2365 dc         1 CLA      0.079300
     80 HED1       79.3374   54.2603   36.4831 dc         1 CLA      0.079300
     81 HBC3       73.4523   56.2637   43.5421 dc         1 CLA      0.016300
     82 HBC2       71.7773   56.0032   43.1032 dc         1 CLA      0.016300
     83 HBC1       73.0065   56.1468   41.8327 dc         1 CLA      0.016300
     84 HBB2       80.0842   63.3210   45.0656 da         1 CLA      0.183000
     85 HBB1       81.0070   62.3409   43.8204 da         1 CLA      0.183000
     86 HBA2       80.1707   60.1821   32.3999 dc         1 CLA      0.029400
     87 HBA1       81.3029   60.2283   33.8242 dc         1 CLA      0.029400
     88 HAC2       72.1028   58.3661   43.5366 dc         1 CLA      0.029300
     89 HAC1       71.4878   58.1450   41.9106 dc         1 CLA      0.029300
     90 HAA2       78.6104   58.8663   33.5879 dc         1 CLA      0.028700
     91 HAA1       78.7841   60.5203   34.3584 dc         1 CLA      0.028700
     92 H203       86.0675   57.7209   49.0514 dc         1 CLA      0.065600
     93 H202       85.5543   59.3026   49.7474 dc         1 CLA      0.065600
     94 H201       84.3474   58.0491   49.2598 dc         1 CLA      0.065600
     95 H193       84.1666   60.4426   46.2577 dc         1 CLA      0.065600
     96 H192       83.2422   59.7032   47.6187 dc         1 CLA      0.065600
     97 H191       84.4639   60.9988   47.8050 dc         1 CLA      0.065600
     98 H172       84.2250   57.3187   46.9221 dc         1 CLA      0.027600
     99 H171       86.0329   57.1615   46.8945 dc         1 CLA      0.027600
    100 H162       84.6024   58.9159   44.7987 dc         1 CLA      0.002900
    101 H161       84.9745   57.1451   44.6957 dc         1 CLA      0.002900
    102 H152       87.3323   57.6246   44.6203 dc         1 CLA      0.029100
    103 H151       86.8685   59.3881   45.0971 dc         1 CLA      0.029100
    104 H143       88.6995   59.2064   42.5332 dc         1 CLA      0.063600
    105 H142       87.6255   60.3551   41.7836 dc         1 CLA      0.063600
    106 H141       88.0079   60.5618   43.4055 dc         1 CLA      0.063600
    107 H122       85.6958   57.1538   42.4959 dc         1 CLA      0.032500
    108 H121       87.3591   57.2154   42.1267 dc         1 CLA      0.032500
    109 H112       87.0207   58.6536   40.2666 dc         1 CLA      0.006600
    110 H111       85.2664   58.8092   40.6138 dc         1 CLA      0.006600
    111 H102       85.0095   56.3835   40.0798 dc         1 CLA      0.024100
    112 H101       86.6312   56.0574   40.0563 dc         1 CLA      0.024100
    113 HHD        72.5882   57.5354   39.9382 da         1 CLA      0.174300
    114 HHC        76.4402   61.3409   43.4223 da         1 CLA      0.136800
    115 HHB        80.9040   61.0386   38.8442 da         1 CLA      0.138300
    116 HBD        76.7012   57.3979   33.9994 dc         1 CLA      0.107700
    117 HAB        77.9630   62.9750   43.8906 da         1 CLA      0.155200
    118 H93        87.6350   58.4748   37.9978 dc         1 CLA      0.069500
    119 H92        88.1068   56.7585   38.1692 dc         1 CLA      0.069500
    120 H91        87.3478   57.3231   36.6561 dc         1 CLA      0.069500
    121 H8         85.2485   57.7747   37.9214 dc         1 CLA      0.029300
    122 H72        84.3621   55.5935   37.7597 dc         1 CLA      0.044400
    123 H71        85.9841   54.8739   37.9756 dc         1 CLA      0.044400
    124 H62        86.5664   55.4894   35.8566 dc         1 CLA      0.015600
    125 H61        85.1994   56.6546   35.6093 dc         1 CLA      0.015600
    126 H52        84.9043   53.5809   36.0248 dc         1 CLA      0.033200
    127 H51        84.9731   54.3087   34.4572 dc         1 CLA      0.033200
    128 H43        82.6215   52.6788   35.3128 dc         1 CLA      0.037000
    129 H42        82.4165   53.3141   36.9674 dc         1 CLA      0.037000
    130 H41        81.3241   53.7594   35.5938 dc         1 CLA      0.037000
    131 H3A        80.6520   60.5026   36.0506 dc         1 CLA      0.041100
    132 H2A        79.8225   57.7882   35.4154 dc         1 CLA      0.083100
    133 H2         82.5424   56.6244   35.8846 da         1 CLA      0.180900
    134 H18        86.3552   59.5342   47.3842 dc         1 CLA     -0.003900
    135 H13        85.6287   59.4385   42.9883 dc         1 CLA      0.019700
    136 H12        81.7695   55.6728   33.0637 dc         1 CLA      0.120400
    137 H11        83.3787   56.5173   33.1156 dc         1 CLA      0.120400
    138 C1         69.1624   62.0063   49.8319 Z1         2 LUT      0.509236
    139 C2         67.7850   61.6257   50.3200 Z2         2 LUT     -0.434695
    140 C3         66.9834   62.7927   50.8176 Z3         2 LUT      0.437453
    141 O3         66.9625   63.0300   52.2546 S1         2 LUT     -0.547129
    142 C4         67.2899   64.1505   50.0437 Z4         2 LUT     -0.468603
    143 C5         68.1589   64.0603   48.7935 Z5         2 LUT      0.279246
    144 C6         69.1182   63.0892   48.7279 Z6         2 LUT     -0.305473
    145 C7         69.5956   62.6479   47.3882 Z7         2 LUT      0.069402
    146 C8         70.8200   62.9223   46.7966 Z8         2 LUT     -0.191631
    147 C9         71.1261   62.6598   45.3704 Z9         2 LUT      0.196698
    148 C10        72.1368   63.4588   44.8509 Y1         2 LUT     -0.208611
    149 C11        72.7258   63.4189   43.5240 Y2         2 LUT      0.030784
    150 C12        73.8413   64.1402   43.2354 Y3         2 LUT     -0.220316
    151 C13        74.6831   64.0468   42.0596 Y4         2 LUT      0.215937
    152 C14        76.0081   64.4824   42.1721 Y5         2 LUT     -0.185793
    153 C15        77.0186   64.6342   41.1741 Y6         2 LUT     -0.057835
    154 C16        69.7124   60.6128   49.2964 Y7         2 LUT     -0.405615
    155 C17        69.8569   62.4299   51.1773 Y7         2 LUT     -0.405615
    156 C18        67.4813   64.8259   47.6108 Y9         2 LUT     -0.369639
    157 C19        70.2886   61.6313   44.5855 W1         2 LUT     -0.333362
    158 C20        74.1406   63.5304   40.7695 W2         2 LUT     -0.323439
    159 C21        88.2015   66.3409   34.7433 Z1         2 LUT      0.406104
    160 C22        88.8837   65.6796   33.5108 Z2         2 LUT     -0.404965
    161 C23        89.1730   66.5753   32.3366 Z3         2 LUT      0.391255
    162 O23        89.8877   65.9090   31.2615 S1         2 LUT     -0.528210
    163 C24        87.9206   67.4535   32.1063 W6         2 LUT     -0.258361
    164 C25        86.9758   67.6691   33.0325 Z5         2 LUT      0.133546
    165 C26        86.8021   66.9206   34.2730 W8         2 LUT     -0.147008
    166 C27        86.0141   67.5080   35.4172 Z7         2 LUT      0.023843
    167 C28        85.0044   66.8879   36.1250 Z8         2 LUT     -0.216987
    168 C29        84.3621   67.2921   37.4203 Z9         2 LUT      0.206524
    169 C30        83.2752   66.5348   37.8033 Y1         2 LUT     -0.215556
    170 C31        82.5364   66.6722   39.0125 Y2         2 LUT      0.025142
    171 C32        81.3535   66.0679   39.4206 Y3         2 LUT     -0.212209
    172 C33        80.3692   66.1891   40.4806 Y4         2 LUT      0.240937
    173 C34        79.2095   65.4428   40.4353 Y5         2 LUT     -0.218862
    174 C35        78.2086   65.3424   41.4258 Y6         2 LUT     -0.023547
    175 C36        89.1899   67.2982   35.3824 Y7         2 LUT     -0.393485
    176 C37        88.0654   65.1495   35.7718 Y7         2 LUT     -0.393485
    177 C38        85.7852   68.4292   32.5772 Y9         2 LUT     -0.387526
    178 C39        84.9845   68.3812   38.3009 W1         2 LUT     -0.322618
    179 C40        80.7730   67.2482   41.5515 W2         2 LUT     -0.358472
    180 H403       81.7340   66.9789   41.9874 R7         2 LUT      0.097720
    181 H402       80.7832   68.2539   41.1963 R7         2 LUT      0.097720
    182 H401       80.0276   67.1233   42.3743 R7         2 LUT      0.097720
    183 H393       85.3344   69.2339   37.7975 R4         2 LUT      0.082505
    184 H392       84.2257   68.8231   38.9333 R4         2 LUT      0.082505
    185 H391       85.8409   68.1569   38.9367 R4         2 LUT      0.082505
    186 H383       84.9128   67.8306   32.2751 R1         2 LUT      0.104030
    187 H382       85.2868   69.0852   33.2436 R1         2 LUT      0.104030
    188 H381       86.1531   69.0569   31.7080 R1         2 LUT      0.104030
    189 H373       87.3292   64.4677   35.4553 T4         2 LUT      0.089537
    190 H372       88.8590   64.4084   35.8809 T4         2 LUT      0.089537
    191 H371       87.9654   65.6240   36.7630 T4         2 LUT      0.089537
    192 H363       89.0225   67.4715   36.4670 T4         2 LUT      0.089537
    193 H362       90.1531   66.8154   35.3028 T4         2 LUT      0.089537
    194 H361       89.1952   68.3240   34.9280 T4         2 LUT      0.089537
    195 H222       89.7600   65.0978   33.7967 U2         2 LUT      0.127376
    196 H221       88.3141   64.8221   33.0850 U2         2 LUT      0.127376
    197 H203       73.0942   63.7848   40.6510 R7         2 LUT      0.087068
    198 H202       74.5770   64.0531   39.9658 R7         2 LUT      0.087068
    199 H201       74.2511   62.4111   40.7359 R7         2 LUT      0.087068
    200 H193       70.5205   61.4382   43.5031 R4         2 LUT      0.089716
    201 H192       70.4983   60.6210   44.9747 R4         2 LUT      0.089716
    202 H191       69.2361   61.8665   44.5977 R4         2 LUT      0.089716
    203 H183       67.4936   65.9728   47.7062 R1         2 LUT      0.094572
    204 H182       68.0510   64.6652   46.6409 R1         2 LUT      0.094572
    205 H181       66.5319   64.4331   47.3873 R1         2 LUT      0.094572
    206 H173       70.7844   62.8245   50.8302 T4         2 LUT      0.093752
    207 H172       69.4631   63.3532   51.6207 T4         2 LUT      0.093752
    208 H171       70.0770   61.5493   51.8475 T4         2 LUT      0.093752
    209 H163       70.6828   60.8310   48.8846 T4         2 LUT      0.093752
    210 H162       69.9546   59.9188   50.1219 T4         2 LUT      0.093752
    211 H161       69.2226   60.1026   48.5978 T4         2 LUT      0.093752
    212 HO3        66.5641   62.2577   52.7167 Q1         2 LUT      0.300121
    213 H8         71.5413   63.4624   47.3996 U7         2 LUT      0.080784
    214 H7         68.8919   62.1341   46.7821 U6         2 LUT      0.042190
    215 H42        66.3772   64.7521   49.8273 U5         2 LUT      0.145166
    216 H41        67.7046   64.8262   50.7227 U5         2 LUT      0.145166
    217 H35        78.3327   65.8640   42.3584 T3         2 LUT      0.077919
    218 H34        79.0219   64.7001   39.6486 T2         2 LUT      0.073626
    219 H32        80.9093   65.4153   38.7351 T1         2 LUT      0.092510
    220 H31        82.9742   67.4566   39.7367 U9         2 LUT      0.070048
    221 H30        82.8439   65.7367   37.0906 U8         2 LUT      0.085442
    222 H3         65.8959   62.7055   50.5135 U3         2 LUT     -0.031596
    223 H28        84.6899   65.9070   35.7712 U7         2 LUT      0.084728
    224 H27        86.3900   68.4727   35.8438 U6         2 LUT      0.087291
    225 H26        86.3073   66.0075   33.8897 Q6         2 LUT      0.075325
    226 H24        87.9257   67.9148   31.0586 Q5         2 LUT      0.094482
    227 H23        89.8725   67.3714   32.6262 U3         2 LUT     -0.024869
    228 H22        67.1980   61.0928   49.6300 U2         2 LUT      0.127376
    229 H21        67.8256   60.9060   51.1658 U2         2 LUT      0.127376
    230 H15        76.9653   64.1298   40.2454 T3         2 LUT      0.093200
    231 H14        76.2775   64.8137   43.1309 T2         2 LUT      0.068865
    232 H12        74.2691   64.7994   44.0419 T1         2 LUT      0.095507
    233 H11        72.3319   62.6394   42.8649 U9         2 LUT      0.068930
    234 H10        72.6295   64.2539   45.4034 U8         2 LUT      0.083911
    235 H1         89.3289   65.6883   30.4406 Q1         2 LUT      0.297311
@<TRIPOS>BOND
    1     6     1 1
    2     7     2 1
    3     8     3 1
    4     9     4 1
    5    11     4 1
    6    12     6 1
    7    13     9 1
    8    16     9 1
    9    25     5 1
   10    25    16 1
   11    26    10 1
   12    26    17 1
   13    27    18 1
   14    28    14 1
   15    28    19 1
   16    29    12 1
   17    30    13 1
   18    31    24 1
   19    32     1 1
   20    32    25 1
   21    33    21 1
   22    33    26 1
   23    34    22 1
   24    34    27 1
   25    35    23 1
   26    35    28 1
   27    36    12 1
   28    36    24 1
   29    37    13 1
   30    37    15 1
   31    38    31 1
   32    39    20 1
   33    39    32 1
   34    40     2 1
   35    40    33 1
   36    41     3 1
   37    41    34 1
   38    42     4 1
   39    42    35 1
   40    43    38 1
   41    44     5 1
   42    44    17 1
   43    44    39 1
   44    45    10 1
   45    45    18 1
   46    45    40 1
   47    46    19 1
   48    46    41 1
   49    47    14 1
   50    47    16 1
   51    47    42 1
   52    48    38 1
   53    49    48 1
   54    50    49 1
   55    51    50 1
   56    52    51 1
   57    53    51 1
   58    54    53 1
   59    55    54 1
   60    56    55 1
   61    57    56 1
   62    58    56 1
   63    59    58 1
   64    60    59 1
   65    61    60 1
   66    62    61 1
   67    63    61 1
   68    64    27 1
   69    64    46 1
   70    65     5 1
   71    65    10 1
   72    65    64 1
   73    65    14 1
   74    66    23 1
   75    67    23 1
   76    68    23 1
   77    69    22 1
   78    70    22 1
   79    71    22 1
   80    72    21 1
   81    73    21 1
   82    74    21 1
   83    75    20 1
   84    76    20 1
   85    77    20 1
   86    78    15 1
   87    79    15 1
   88    80    15 1
   89    81     8 1
   90    82     8 1
   91    83     8 1
   92    84     7 1
   93    85     7 1
   94    86     6 1
   95    87     6 1
   96    88     3 1
   97    89     3 1
   98    90     1 1
   99    91     1 1
  100    92    63 1
  101    93    63 1
  102    94    63 1
  103    95    62 1
  104    96    62 1
  105    97    62 1
  106    98    60 1
  107    99    60 1
  108   100    59 1
  109   101    59 1
  110   102    58 1
  111   103    58 1
  112   104    57 1
  113   105    57 1
  114   106    57 1
  115   107    55 1
  116   108    55 1
  117   109    54 1
  118   110    54 1
  119   111    53 1
  120   112    53 1
  121   113    19 1
  122   114    18 1
  123   115    17 1
  124   116     9 1
  125   117     2 1
  126   118    52 1
  127   119    52 1
  128   120    52 1
  129   121    51 1
  130   122    50 1
  131   123    50 1
  132   124    49 1
  133   125    49 1
  134   126    48 1
  135   127    48 1
  136   128    43 1
  137   129    43 1
  138   130    43 1
  139   131    39 1
  140   132    32 1
  141   133    31 1
  142   134    61 1
  143   135    56 1
  144   136    24 1
  145   137    24 1
  146   139   138 1
  147   140   139 1
  148   141   140 1
  149   142   140 1
  150   143   142 1
  151   144   138 1
  152   144   143 1
  153   145   144 1
  154   146   145 1
  155   147   146 1
  156   148   147 1
  157   149   148 1
  158   150   149 1
  159   151   150 1
  160   152   151 1
  161   153   152 1
  162   154   138 1
  163   155   138 1
  164   156   143 1
  165   157   147 1
  166   158   151 1
  167   160   159 1
  168   161   160 1
  169   162   161 1
  170   163   161 1
  171   164   163 1
  172   165   159 1
  173   165   164 1
  174   166   165 1
  175   167   166 1
  176   168   167 1
  177   169   168 1
  178   170   169 1
  179   171   170 1
  180   172   171 1
  181   173   172 1
  182   174   153 1
  183   174   173 1
  184   175   159 1
  185   176   159 1
  186   177   164 1
  187   178   168 1
  188   179   172 1
  189   180   179 1
  190   181   179 1
  191   182   179 1
  192   183   178 1
  193   184   178 1
  194   185   178 1
  195   186   177 1
  196   187   177 1
  197   188   177 1
  198   189   176 1
  199   190   176 1
  200   191   176 1
  201   192   175 1
  202   193   175 1
  203   194   175 1
  204   195   160 1
  205   196   160 1
  206   197   158 1
  207   198   158 1
  208   199   158 1
  209   200   157 1
  210   201   157 1
  211   202   157 1
  212   203   156 1
  213   204   156 1
  214   205   156 1
  215   206   155 1
  216   207   155 1
  217   208   155 1
  218   209   154 1
  219   210   154 1
  220   211   154 1
  221   212   141 1
  222   213   146 1
  223   214   145 1
  224   215   142 1
  225   216   142 1
  226   217   174 1
  227   218   173 1
  228   219   171 1
  229   220   170 1
  230   221   169 1
  231   222   140 1
  232   223   167 1
  233   224   166 1
  234   225   165 1
  235   226   163 1
  236   227   161 1
  237   228   139 1
  238   229   139 1
  239   230   153 1
  240   231   152 1
  241   232   150 1
  242   233   149 1
  243   234   148 1
  244   235   162 1
  245   65    153 1
  246   65    174 1
@<TRIPOS>SUBSTRUCTURE
      1 CLA               1 ****               0 ****  **** 
      2 LUT             138 ****               0 ****  **** 
