@<TRIPOS>MOLECULE
Cpptraj generated mol2 file.
  235   246     2     0     0
SMALL
USER_CHARGES


@<TRIPOS>ATOM
      1 CAA        78.0676   58.9323   35.1413 a2         1 CLA     -0.055900
      2 CAB        78.1712   62.3668   44.0286 c8         1 CLA     -0.148500
      3 CAC        71.2266   58.1107   43.7579 a2         1 CLA     -0.012600
      4 CAD        74.0577   56.2214   36.2571 ck         1 CLA      0.398800
      5 NA         77.0606   59.1315   38.5755 ns         1 CLA     -0.225500
      6 CBA        79.3041   59.0196   34.2131 a2         1 CLA     -0.135000
      7 CBB        77.2637   62.9146   44.8018 c0         1 CLA     -0.395200
      8 CBC        71.0226   56.5815   43.6921 a3         1 CLA     -0.037700
      9 CBD        75.4679   56.8340   35.9984 a1         1 CLA     -0.053900
     10 NB         76.8855   60.4490   41.1780 nm         1 CLA     -0.295700
     11 OBD        73.5507   55.4816   35.4211 o2         1 CLA     -0.494600
     12 CGA        79.8901   57.6588   33.8432 c4         1 CLA      0.827000
     13 CGD        76.5158   55.6780   35.8636 c4         1 CLA      0.655300
     14 ND         74.3136   58.0746   39.2170 nm         1 CLA     -0.291600
     15 CED        77.1552   53.5500   36.7455 a3         1 CLA      0.005400
     16 CHA        75.7040   57.7188   37.1567 cs         1 CLA     -0.123800
     17 CHB        78.8167   60.3693   39.6950 aa         1 CLA     -0.291900
     18 CHC        75.6298   60.6003   43.2579 aa         1 CLA     -0.090400
     19 CHD        72.4829   57.7095   40.8496 aa         1 CLA     -0.052000
     20 CMA        80.5544   58.4598   37.8454 a3         1 CLA     -0.230700
     21 CMB        80.1863   62.2354   41.7726 a3         1 CLA     -0.180800
     22 CMC        73.4940   59.8629   45.4256 a3         1 CLA     -0.134000
     23 CMD        71.2966   55.9960   38.5578 a3         1 CLA     -0.141100
     24 C1         80.8394   55.7019   34.8208 a2         1 CLA      0.023000
     25 C1A        76.9449   58.4267   37.3681 ac         1 CLA     -0.015100
     26 C1B        78.1832   60.7408   40.8507 cr         1 CLA      0.054700
     27 C1C        74.4882   59.8198   43.0344 cn         1 CLA     -0.005600
     28 C1D        73.0837   57.5600   39.5362 ap         1 CLA     -0.047300
     29 O1A        79.6006   57.0439   32.8216 o2         1 CLA     -0.610800
     30 O1D        77.4183   55.6842   35.0374 o2         1 CLA     -0.558200
     31 C2         81.3413   55.1985   36.1907 c8         1 CLA     -0.325100
     32 C2A        78.2731   58.4009   36.5094 a1         1 CLA      0.098600
     33 C2B        78.7894   61.5783   41.8193 cb         1 CLA      0.088500
     34 C2C        73.4704   59.4701   43.9761 cb         1 CLA      0.053700
     35 C2D        72.5564   56.7657   38.4684 cb         1 CLA      0.058900
     36 O2A        80.6008   57.1377   34.8908 o1         1 CLA     -0.437200
     37 O2D        76.2167   54.6734   36.7795 o1         1 CLA     -0.357600
     38 C3         82.6281   54.9824   36.5930 c5         1 CLA      0.031200
     39 C3A        79.1736   59.1861   37.4767 a1         1 CLA      0.166800
     40 C3B        77.8901   61.6995   42.8211 cb         1 CLA      0.035000
     41 C3C        72.5333   58.6507   43.2733 cb         1 CLA     -0.089900
     42 C3D        73.5755   56.7710   37.5417 cb         1 CLA     -0.035900
     43 C4         83.2835   53.6717   36.4248 a3         1 CLA     -0.053300
     44 C4A        78.3335   59.5103   38.7088 ac         1 CLA      0.001800
     45 C4B        76.7454   60.8427   42.4203 cn         1 CLA     -0.020900
     46 C4C        73.0051   58.4956   41.9473 cr         1 CLA     -0.044400
     47 C4D        74.6403   57.5822   38.0197 c6         1 CLA     -0.046000
     48 C5         83.1904   55.9667   37.6234 a2         1 CLA     -0.070400
     49 C6         84.5427   55.6017   38.2855 a2         1 CLA      0.043900
     50 C7         84.6405   56.2968   39.6977 a2         1 CLA     -0.150000
     51 C8         84.4613   57.8915   39.6308 a1         1 CLA      0.064200
     52 C9         85.3747   58.5616   38.6160 a3         1 CLA     -0.259300
     53 C10        84.5701   58.5877   41.0116 a2         1 CLA     -0.071900
     54 C11        83.2226   58.5078   41.8022 a2         1 CLA      0.014500
     55 C12        83.0606   59.6299   42.8243 a2         1 CLA     -0.112100
     56 C13        83.9982   59.7444   44.0493 a1         1 CLA      0.089200
     57 C14        83.9568   58.5079   44.8409 a3         1 CLA     -0.239100
     58 C15        83.6164   60.9164   44.9856 a2         1 CLA     -0.102200
     59 C16        84.6039   61.2385   46.1772 a2         1 CLA      0.023900
     60 C17        84.3458   62.6597   46.7163 a2         1 CLA     -0.105700
     61 C18        84.8431   63.1651   48.1270 a1         1 CLA      0.206800
     62 C19        84.6775   64.6532   48.2153 a3         1 CLA     -0.280100
     63 C20        84.2305   62.4421   49.4110 a3         1 CLA     -0.280100
     64 NC         74.2690   59.1552   41.8732 nx         1 CLA     -0.309200
     65 MG         75.5242   59.3537   40.1827 mg         1 CLA      0.895000
     66 HMD3       70.5085   56.7581   38.4482 dc         1 CLA      0.064300
     67 HMD2       71.3262   55.3051   37.6748 dc         1 CLA      0.064300
     68 HMD1       71.1857   55.4900   39.5393 dc         1 CLA      0.064300
     69 HMC3       72.4827   59.5329   45.8936 dc         1 CLA      0.052100
     70 HMC2       74.2927   59.2496   45.8255 dc         1 CLA      0.052100
     71 HMC1       73.6713   60.8914   45.5387 dc         1 CLA      0.052100
     72 HMB3       80.3133   62.7081   40.7821 dc         1 CLA      0.063600
     73 HMB2       80.2008   63.0614   42.5325 dc         1 CLA      0.063600
     74 HMB1       80.9338   61.4674   41.9766 dc         1 CLA      0.063600
     75 HMA3       80.4402   57.4712   38.3007 dc         1 CLA      0.058300
     76 HMA2       81.1550   58.3242   36.9415 dc         1 CLA      0.058300
     77 HMA1       81.0736   59.0674   38.5418 dc         1 CLA      0.058300
     78 HED3       78.1545   53.8634   36.8799 dc         1 CLA      0.079300
     79 HED2       76.9997   52.8386   37.5152 dc         1 CLA      0.079300
     80 HED1       77.0212   52.9663   35.7308 dc         1 CLA      0.079300
     81 HBC3       70.3109   56.1584   44.4645 dc         1 CLA      0.016300
     82 HBC2       70.5864   56.3252   42.7388 dc         1 CLA      0.016300
     83 HBC1       72.0138   56.1185   43.8009 dc         1 CLA      0.016300
     84 HBB2       77.3894   63.3558   45.8090 da         1 CLA      0.183000
     85 HBB1       76.1917   62.9703   44.5487 da         1 CLA      0.183000
     86 HBA2       79.0763   59.5163   33.2837 dc         1 CLA      0.029400
     87 HBA1       80.1340   59.5341   34.6993 dc         1 CLA      0.029400
     88 HAC2       71.1253   58.3963   44.7232 dc         1 CLA      0.029300
     89 HAC1       70.3732   58.6402   43.2167 dc         1 CLA      0.029300
     90 HAA2       77.2703   58.3711   34.6388 dc         1 CLA      0.028700
     91 HAA1       77.7831   59.8959   35.2290 dc         1 CLA      0.028700
     92 H203       85.0158   62.6936   50.1389 dc         1 CLA      0.065600
     93 H202       83.2393   62.7298   49.6328 dc         1 CLA      0.065600
     94 H201       84.1653   61.3808   49.2004 dc         1 CLA      0.065600
     95 H193       85.2917   65.2218   47.4845 dc         1 CLA      0.065600
     96 H192       83.6104   64.9293   48.0099 dc         1 CLA      0.065600
     97 H191       84.8876   65.0039   49.1949 dc         1 CLA      0.065600
     98 H172       84.8518   63.2554   45.9305 dc         1 CLA      0.027600
     99 H171       83.2902   62.7481   46.7875 dc         1 CLA      0.027600
    100 H162       84.5731   60.4357   46.9282 dc         1 CLA      0.002900
    101 H161       85.6174   61.2032   45.7649 dc         1 CLA      0.002900
    102 H152       83.5906   61.7265   44.3139 dc         1 CLA      0.029100
    103 H151       82.6450   60.8150   45.4639 dc         1 CLA      0.029100
    104 H143       84.4964   57.6554   44.3426 dc         1 CLA      0.063600
    105 H142       84.4646   58.7111   45.7497 dc         1 CLA      0.063600
    106 H141       82.8802   58.2163   44.9137 dc         1 CLA      0.063600
    107 H122       83.1580   60.5741   42.3269 dc         1 CLA      0.032500
    108 H121       82.0399   59.6081   43.2363 dc         1 CLA      0.032500
    109 H112       82.4216   58.6511   41.0645 dc         1 CLA      0.006600
    110 H111       83.2071   57.4592   42.2039 dc         1 CLA      0.006600
    111 H102       85.3623   58.0394   41.5229 dc         1 CLA      0.024100
    112 H101       84.8804   59.6133   40.9260 dc         1 CLA      0.024100
    113 HHD        71.5384   57.2004   41.0759 da         1 CLA      0.174300
    114 HHC        75.7695   60.9325   44.2770 da         1 CLA      0.136800
    115 HHB        79.8186   60.6846   39.5305 da         1 CLA      0.138300
    116 HBD        75.5183   57.3403   35.0748 dc         1 CLA      0.107700
    117 HAB        79.1448   62.3898   44.4761 da         1 CLA      0.155200
    118 H93        85.4087   59.6959   38.7420 dc         1 CLA      0.069500
    119 H92        86.3777   58.1710   38.8261 dc         1 CLA      0.069500
    120 H91        85.0337   58.3794   37.6013 dc         1 CLA      0.069500
    121 H8         83.5099   58.1733   39.2404 dc         1 CLA      0.029300
    122 H72        84.1115   55.7875   40.4549 dc         1 CLA      0.044400
    123 H71        85.7293   56.1408   39.8912 dc         1 CLA      0.044400
    124 H62        84.5880   54.5416   38.5474 dc         1 CLA      0.015600
    125 H61        85.3891   55.8334   37.6536 dc         1 CLA      0.015600
    126 H52        83.3662   56.8558   37.0328 dc         1 CLA      0.033200
    127 H51        82.3941   56.2582   38.3657 dc         1 CLA      0.033200
    128 H43        83.3103   53.0613   37.3282 dc         1 CLA      0.037000
    129 H42        82.8902   53.1270   35.5151 dc         1 CLA      0.037000
    130 H41        84.3768   53.7502   36.1649 dc         1 CLA      0.037000
    131 H3A        79.3855   60.1733   36.9535 dc         1 CLA      0.041100
    132 H2A        78.6916   57.3965   36.5143 dc         1 CLA      0.083100
    133 H2         80.5892   54.8093   36.8750 da         1 CLA      0.180900
    134 H18        85.9273   63.0095   48.0302 dc         1 CLA     -0.003900
    135 H13        84.9515   59.9129   43.5775 dc         1 CLA      0.019700
    136 H12        79.8738   55.1349   34.6385 dc         1 CLA      0.120400
    137 H11        81.4978   55.6136   33.9245 dc         1 CLA      0.120400
    138 C1         66.9706   61.5040   50.9117 Z1         2 LUT      0.509236
    139 C2         67.0323   62.7370   51.8266 Z2         2 LUT     -0.434695
    140 C3         65.7838   63.5626   51.8503 Z3         2 LUT      0.437453
    141 O3         66.0450   64.7279   52.5742 S1         2 LUT     -0.547129
    142 C4         65.2512   63.8664   50.4471 Z4         2 LUT     -0.468603
    143 C5         65.8086   62.9782   49.2442 Z5         2 LUT      0.279246
    144 C6         66.6271   61.8733   49.4985 Z6         2 LUT     -0.305473
    145 C7         67.3836   61.3298   48.3864 Z7         2 LUT      0.069402
    146 C8         68.2355   61.9743   47.6118 Z8         2 LUT     -0.191631
    147 C9         68.9630   61.5185   46.3703 Z9         2 LUT      0.196698
    148 C10        69.9032   62.3506   45.8118 Y1         2 LUT     -0.208611
    149 C11        70.6777   62.1965   44.6403 Y2         2 LUT      0.030784
    150 C12        71.7694   62.9774   44.4380 Y3         2 LUT     -0.220316
    151 C13        72.7033   62.9631   43.2284 Y4         2 LUT      0.215937
    152 C14        73.6952   63.8499   43.2522 Y5         2 LUT     -0.185793
    153 C15        74.7738   63.9557   42.2786 Y6         2 LUT     -0.057835
    154 C16        65.7887   60.6637   51.2385 Y7         2 LUT     -0.405615
    155 C17        68.2275   60.6446   51.1496 Y7         2 LUT     -0.405615
    156 C18        65.7037   63.8182   48.0526 Y9         2 LUT     -0.369639
    157 C19        68.6386   60.1808   45.8022 W1         2 LUT     -0.333362
    158 C20        72.2487   62.2929   42.0027 W2         2 LUT     -0.323439
    159 C21        86.5175   66.1431   37.0358 Z1         2 LUT      0.406104
    160 C22        87.3235   65.5998   35.7936 Z2         2 LUT     -0.404965
    161 C23        87.2084   66.3426   34.4868 Z3         2 LUT      0.391255
    162 O23        87.7049   65.4415   33.4776 S1         2 LUT     -0.528210
    163 C24        85.7664   66.8240   34.2817 W6         2 LUT     -0.258361
    164 C25        84.8515   66.9791   35.2019 Z5         2 LUT      0.133546
    165 C26        85.0380   66.3406   36.6033 W8         2 LUT     -0.147008
    166 C27        84.2923   67.0518   37.7247 Z7         2 LUT      0.023843
    167 C28        83.1924   66.4952   38.2888 Z8         2 LUT     -0.216987
    168 C29        82.3728   66.9907   39.4063 Z9         2 LUT      0.206524
    169 C30        81.3229   66.1231   39.6399 Y1         2 LUT     -0.215556
    170 C31        80.3262   66.2947   40.7200 Y2         2 LUT      0.025142
    171 C32        79.2333   65.5194   40.8035 Y3         2 LUT     -0.212209
    172 C33        78.1562   65.6949   41.7606 Y4         2 LUT      0.240937
    173 C34        77.0633   64.9048   41.6350 Y5         2 LUT     -0.218862
    174 C35        75.9144   64.7163   42.4142 Y6         2 LUT     -0.023547
    175 C36        87.4005   67.4499   37.2905 Y7         2 LUT     -0.393485
    176 C37        86.8582   65.2023   38.2661 Y7         2 LUT     -0.393485
    177 C38        83.4746   67.6268   34.8946 Y9         2 LUT     -0.387526
    178 C39        82.7484   68.1326   40.3028 W1         2 LUT     -0.322618
    179 C40        78.5878   66.3214   43.0652 W2         2 LUT     -0.358472
    180 H403       78.5423   67.4313   42.9972 R7         2 LUT      0.097720
    181 H402       77.8637   66.0143   43.8496 R7         2 LUT      0.097720
    182 H401       79.6076   66.0958   43.5081 R7         2 LUT      0.097720
    183 H393       83.3181   67.6997   41.0876 R4         2 LUT      0.082505
    184 H392       83.2387   69.0123   39.8040 R4         2 LUT      0.082505
    185 H391       81.8971   68.6429   40.7430 R4         2 LUT      0.082505
    186 H383       83.2642   67.3280   33.8456 R1         2 LUT      0.104030
    187 H382       82.7117   67.1655   35.4810 R1         2 LUT      0.104030
    188 H381       83.3971   68.7254   35.0365 R1         2 LUT      0.104030
    189 H373       87.8821   65.0621   38.4036 T4         2 LUT      0.089537
    190 H372       86.4775   65.6579   39.1547 T4         2 LUT      0.089537
    191 H371       86.5180   64.1765   38.0045 T4         2 LUT      0.089537
    192 H363       88.4604   67.1957   37.3760 T4         2 LUT      0.089537
    193 H362       87.2762   68.1441   36.4854 T4         2 LUT      0.089537
    194 H361       87.0469   68.0422   38.1528 T4         2 LUT      0.089537
    195 H222       88.3734   65.5163   35.9814 U2         2 LUT      0.127376
    196 H221       86.7886   64.6608   35.5200 U2         2 LUT      0.127376
    197 H203       72.8421   62.5173   41.0778 R7         2 LUT      0.087068
    198 H202       71.9636   61.2001   42.0335 R7         2 LUT      0.087068
    199 H201       71.3065   62.6169   41.6504 R7         2 LUT      0.087068
    200 H193       68.9806   59.9717   44.8012 R4         2 LUT      0.089716
    201 H192       68.9549   59.3407   46.4569 R4         2 LUT      0.089716
    202 H191       67.5733   60.0521   45.7288 R4         2 LUT      0.089716
    203 H183       66.0932   63.2155   47.2272 R1         2 LUT      0.094572
    204 H182       64.6674   64.0885   47.9742 R1         2 LUT      0.094572
    205 H181       66.1592   64.7155   48.2935 R1         2 LUT      0.094572
    206 H173       69.1158   60.9671   50.6018 T4         2 LUT      0.093752
    207 H172       68.4221   60.6486   52.2332 T4         2 LUT      0.093752
    208 H171       67.9473   59.6289   50.7750 T4         2 LUT      0.093752
    209 H163       65.8261   60.1797   52.2455 T4         2 LUT      0.093752
    210 H162       64.7816   61.2100   51.1236 T4         2 LUT      0.093752
    211 H161       65.7469   59.8059   50.5608 T4         2 LUT      0.093752
    212 HO3        65.2616   65.2919   52.7813 Q1         2 LUT      0.300121
    213 H8         68.3408   62.9967   47.8679 U7         2 LUT      0.080784
    214 H7         67.3085   60.2897   48.1440 U6         2 LUT      0.042190
    215 H42        64.2463   63.4983   50.5172 U5         2 LUT      0.145166
    216 H41        65.0628   64.9454   50.3197 U5         2 LUT      0.145166
    217 H35        75.9474   65.3088   43.3293 T3         2 LUT      0.077919
    218 H34        77.0051   64.2628   40.7290 T2         2 LUT      0.073626
    219 H32        79.1171   64.7704   39.9843 T1         2 LUT      0.092510
    220 H31        80.5025   67.0960   41.4548 U9         2 LUT      0.070048
    221 H30        81.0458   65.3465   38.9136 U8         2 LUT      0.085442
    222 H3         64.9587   63.1030   52.4108 U3         2 LUT     -0.031596
    223 H28        82.7467   65.5696   37.7830 U7         2 LUT      0.084728
    224 H27        84.7959   67.9025   38.0983 U6         2 LUT      0.087291
    225 H26        84.7527   65.2414   36.4226 Q6         2 LUT      0.075325
    226 H24        85.6589   67.2859   33.3117 Q5         2 LUT      0.094482
    227 H23        87.5970   67.3285   34.6049 U3         2 LUT     -0.024869
    228 H22        67.2060   62.4981   52.9512 U2         2 LUT      0.127376
    229 H21        67.9529   63.3235   51.5512 U2         2 LUT      0.127376
    230 H15        74.6792   63.3889   41.3688 T3         2 LUT      0.093200
    231 H14        73.9245   64.3851   44.2089 T2         2 LUT      0.068865
    232 H12        72.0630   63.7074   45.1735 T1         2 LUT      0.095507
    233 H11        70.4522   61.4667   43.9050 U9         2 LUT      0.068930
    234 H10        70.0667   63.3268   46.2877 U8         2 LUT      0.083911
    235 H1         87.3021   65.5756   32.5905 Q1         2 LUT      0.297311
@<TRIPOS>BOND
    1     6     1 1
    2     7     2 1
    3     8     3 1
    4     9     4 1
    5    11     4 1
    6    12     6 1
    7    13     9 1
    8    16     9 1
    9    25     5 1
   10    25    16 1
   11    26    10 1
   12    26    17 1
   13    27    18 1
   14    28    14 1
   15    28    19 1
   16    29    12 1
   17    30    13 1
   18    31    24 1
   19    32     1 1
   20    32    25 1
   21    33    21 1
   22    33    26 1
   23    34    22 1
   24    34    27 1
   25    35    23 1
   26    35    28 1
   27    36    12 1
   28    36    24 1
   29    37    13 1
   30    37    15 1
   31    38    31 1
   32    39    20 1
   33    39    32 1
   34    40     2 1
   35    40    33 1
   36    41     3 1
   37    41    34 1
   38    42     4 1
   39    42    35 1
   40    43    38 1
   41    44     5 1
   42    44    17 1
   43    44    39 1
   44    45    10 1
   45    45    18 1
   46    45    40 1
   47    46    19 1
   48    46    41 1
   49    47    14 1
   50    47    16 1
   51    47    42 1
   52    48    38 1
   53    49    48 1
   54    50    49 1
   55    51    50 1
   56    52    51 1
   57    53    51 1
   58    54    53 1
   59    55    54 1
   60    56    55 1
   61    57    56 1
   62    58    56 1
   63    59    58 1
   64    60    59 1
   65    61    60 1
   66    62    61 1
   67    63    61 1
   68    64    27 1
   69    64    46 1
   70    65     5 1
   71    65    10 1
   72    65    64 1
   73    65    14 1
   74    66    23 1
   75    67    23 1
   76    68    23 1
   77    69    22 1
   78    70    22 1
   79    71    22 1
   80    72    21 1
   81    73    21 1
   82    74    21 1
   83    75    20 1
   84    76    20 1
   85    77    20 1
   86    78    15 1
   87    79    15 1
   88    80    15 1
   89    81     8 1
   90    82     8 1
   91    83     8 1
   92    84     7 1
   93    85     7 1
   94    86     6 1
   95    87     6 1
   96    88     3 1
   97    89     3 1
   98    90     1 1
   99    91     1 1
  100    92    63 1
  101    93    63 1
  102    94    63 1
  103    95    62 1
  104    96    62 1
  105    97    62 1
  106    98    60 1
  107    99    60 1
  108   100    59 1
  109   101    59 1
  110   102    58 1
  111   103    58 1
  112   104    57 1
  113   105    57 1
  114   106    57 1
  115   107    55 1
  116   108    55 1
  117   109    54 1
  118   110    54 1
  119   111    53 1
  120   112    53 1
  121   113    19 1
  122   114    18 1
  123   115    17 1
  124   116     9 1
  125   117     2 1
  126   118    52 1
  127   119    52 1
  128   120    52 1
  129   121    51 1
  130   122    50 1
  131   123    50 1
  132   124    49 1
  133   125    49 1
  134   126    48 1
  135   127    48 1
  136   128    43 1
  137   129    43 1
  138   130    43 1
  139   131    39 1
  140   132    32 1
  141   133    31 1
  142   134    61 1
  143   135    56 1
  144   136    24 1
  145   137    24 1
  146   139   138 1
  147   140   139 1
  148   141   140 1
  149   142   140 1
  150   143   142 1
  151   144   138 1
  152   144   143 1
  153   145   144 1
  154   146   145 1
  155   147   146 1
  156   148   147 1
  157   149   148 1
  158   150   149 1
  159   151   150 1
  160   152   151 1
  161   153   152 1
  162   154   138 1
  163   155   138 1
  164   156   143 1
  165   157   147 1
  166   158   151 1
  167   160   159 1
  168   161   160 1
  169   162   161 1
  170   163   161 1
  171   164   163 1
  172   165   159 1
  173   165   164 1
  174   166   165 1
  175   167   166 1
  176   168   167 1
  177   169   168 1
  178   170   169 1
  179   171   170 1
  180   172   171 1
  181   173   172 1
  182   174   153 1
  183   174   173 1
  184   175   159 1
  185   176   159 1
  186   177   164 1
  187   178   168 1
  188   179   172 1
  189   180   179 1
  190   181   179 1
  191   182   179 1
  192   183   178 1
  193   184   178 1
  194   185   178 1
  195   186   177 1
  196   187   177 1
  197   188   177 1
  198   189   176 1
  199   190   176 1
  200   191   176 1
  201   192   175 1
  202   193   175 1
  203   194   175 1
  204   195   160 1
  205   196   160 1
  206   197   158 1
  207   198   158 1
  208   199   158 1
  209   200   157 1
  210   201   157 1
  211   202   157 1
  212   203   156 1
  213   204   156 1
  214   205   156 1
  215   206   155 1
  216   207   155 1
  217   208   155 1
  218   209   154 1
  219   210   154 1
  220   211   154 1
  221   212   141 1
  222   213   146 1
  223   214   145 1
  224   215   142 1
  225   216   142 1
  226   217   174 1
  227   218   173 1
  228   219   171 1
  229   220   170 1
  230   221   169 1
  231   222   140 1
  232   223   167 1
  233   224   166 1
  234   225   165 1
  235   226   163 1
  236   227   161 1
  237   228   139 1
  238   229   139 1
  239   230   153 1
  240   231   152 1
  241   232   150 1
  242   233   149 1
  243   234   148 1
  244   235   162 1
  245   65    153 1
  246   65    174 1
@<TRIPOS>SUBSTRUCTURE
      1 CLA               1 ****               0 ****  **** 
      2 LUT             138 ****               0 ****  **** 
