@<TRIPOS>MOLECULE
Cpptraj generated mol2 file.
  235   246     2     0     0
SMALL
USER_CHARGES


@<TRIPOS>ATOM
      1 CAA        78.3530   57.9195   35.0043 a2         1 CLA     -0.055900
      2 CAB        77.7596   61.6797   44.0541 c8         1 CLA     -0.148500
      3 CAC        71.0373   57.3053   42.9526 a2         1 CLA     -0.012600
      4 CAD        74.1198   55.1030   35.9979 ck         1 CLA      0.398800
      5 NA         77.1988   58.2254   38.4416 ns         1 CLA     -0.225500
      6 CBA        79.6523   57.8764   34.2014 a2         1 CLA     -0.135000
      7 CBB        78.8166   61.6601   44.9308 c0         1 CLA     -0.395200
      8 CBC        71.2127   55.8297   43.1607 a3         1 CLA     -0.037700
      9 CBD        75.6223   55.7434   35.7523 a1         1 CLA     -0.053900
     10 NB         76.8311   59.7109   41.0022 nm         1 CLA     -0.295700
     11 OBD        73.6394   54.3422   35.1791 o2         1 CLA     -0.494600
     12 CGA        80.2603   56.4799   33.9814 c4         1 CLA      0.827000
     13 CGD        76.7106   54.6891   35.6076 c4         1 CLA      0.655300
     14 ND         74.3996   57.2696   38.8077 nm         1 CLA     -0.291600
     15 CED        77.6855   52.7306   36.6712 a3         1 CLA      0.005400
     16 CHA        75.9435   56.6806   36.9330 cs         1 CLA     -0.123800
     17 CHB        78.8279   59.5789   39.5612 aa         1 CLA     -0.291900
     18 CHC        75.2943   59.9733   42.9474 aa         1 CLA     -0.090400
     19 CHD        72.4799   56.9615   40.3159 aa         1 CLA     -0.052000
     20 CMA        80.6752   57.7069   37.9021 a3         1 CLA     -0.230700
     21 CMB        80.0381   61.4118   41.7365 a3         1 CLA     -0.180800
     22 CMC        72.7833   59.5642   44.6667 a3         1 CLA     -0.134000
     23 CMD        71.6118   54.6078   38.2025 a3         1 CLA     -0.141100
     24 C1         81.5358   54.6752   34.9615 a2         1 CLA      0.023000
     25 C1A        77.1253   57.4200   37.2952 ac         1 CLA     -0.015100
     26 C1B        78.1471   60.0237   40.7059 cr         1 CLA      0.054700
     27 C1C        74.2133   59.1611   42.5548 cn         1 CLA     -0.005600
     28 C1D        73.1569   56.6922   39.1075 ap         1 CLA     -0.047300
     29 O1A        80.1740   55.7906   32.9464 o2         1 CLA     -0.610800
     30 O1D        77.3729   54.4186   34.6513 o2         1 CLA     -0.558200
     31 C2         82.1583   54.3888   36.3531 c8         1 CLA     -0.325100
     32 C2A        78.4460   57.4493   36.4985 a1         1 CLA      0.098600
     33 C2B        78.7011   60.7848   41.7374 cb         1 CLA      0.088500
     34 C2C        73.0077   58.9173   43.3137 cb         1 CLA      0.053700
     35 C2D        72.7519   55.6592   38.1656 cb         1 CLA      0.058900
     36 O2A        80.8134   55.9647   35.1267 o1         1 CLA     -0.437200
     37 O2D        76.8691   53.9978   36.8080 o1         1 CLA     -0.357600
     38 C3         82.4762   53.2681   36.9692 c5         1 CLA      0.031200
     39 C3A        79.3316   58.2837   37.4032 a1         1 CLA      0.166800
     40 C3B        77.7011   60.9033   42.7613 cb         1 CLA      0.035000
     41 C3C        72.3165   57.9226   42.6298 cb         1 CLA     -0.089900
     42 C3D        73.7514   55.7263   37.2517 cb         1 CLA     -0.035900
     43 C4         81.5448   52.4759   37.9551 a3         1 CLA     -0.053300
     44 C4A        78.3844   58.7183   38.5411 ac         1 CLA      0.001800
     45 C4B        76.4888   60.2747   42.2307 cn         1 CLA     -0.020900
     46 C4C        72.9473   57.8475   41.3712 cr         1 CLA     -0.044400
     47 C4D        74.7871   56.6482   37.6700 c6         1 CLA     -0.046000
     48 C5         83.9332   52.8157   36.9615 a2         1 CLA     -0.070400
     49 C6         84.9514   53.9082   36.8066 a2         1 CLA      0.043900
     50 C7         85.0777   54.6174   38.1586 a2         1 CLA     -0.150000
     51 C8         85.7863   56.0371   37.9758 a1         1 CLA      0.064200
     52 C9         87.2338   55.9982   37.3516 a3         1 CLA     -0.259300
     53 C10        85.8175   56.7575   39.4081 a2         1 CLA     -0.071900
     54 C11        84.4931   57.1310   40.0467 a2         1 CLA      0.014500
     55 C12        84.6761   57.9706   41.3390 a2         1 CLA     -0.112100
     56 C13        85.1406   57.4024   42.6837 a1         1 CLA      0.089200
     57 C14        84.2233   56.2162   43.1692 a3         1 CLA     -0.239100
     58 C15        85.1361   58.4554   43.7799 a2         1 CLA     -0.102200
     59 C16        83.8689   59.0825   44.2587 a2         1 CLA      0.023900
     60 C17        84.2165   59.9589   45.4499 a2         1 CLA     -0.105700
     61 C18        83.0109   60.7897   45.9914 a1         1 CLA      0.206800
     62 C19        81.8061   59.8549   46.3883 a3         1 CLA     -0.280100
     63 C20        83.4970   61.6346   47.2237 a3         1 CLA     -0.280100
     64 NC         74.1288   58.5163   41.3512 nx         1 CLA     -0.309200
     65 MG         75.5730   58.5747   39.8466 mg         1 CLA      0.895000
     66 HMD3       71.1030   54.7790   39.1604 dc         1 CLA      0.064300
     67 HMD2       70.9013   54.8598   37.4913 dc         1 CLA      0.064300
     68 HMD1       72.0298   53.5674   38.1612 dc         1 CLA      0.064300
     69 HMC3       73.3580   59.0431   45.4535 dc         1 CLA      0.052100
     70 HMC2       73.0579   60.6078   44.5509 dc         1 CLA      0.052100
     71 HMC1       71.7362   59.4241   44.9130 dc         1 CLA      0.052100
     72 HMB3       80.1343   62.0675   42.5752 dc         1 CLA      0.063600
     73 HMB2       80.6898   60.5788   41.7320 dc         1 CLA      0.063600
     74 HMB1       80.2067   61.9063   40.7420 dc         1 CLA      0.063600
     75 HMA3       80.4887   56.8778   38.5631 dc         1 CLA      0.058300
     76 HMA2       81.1456   57.1838   37.1165 dc         1 CLA      0.058300
     77 HMA1       81.2933   58.4086   38.2944 dc         1 CLA      0.058300
     78 HED3       77.8094   52.2435   37.6061 dc         1 CLA      0.079300
     79 HED2       77.1608   51.9671   35.9903 dc         1 CLA      0.079300
     80 HED1       78.6626   52.9363   36.2149 dc         1 CLA      0.079300
     81 HBC3       70.2927   55.4079   43.6694 dc         1 CLA      0.016300
     82 HBC2       71.3041   55.1875   42.2262 dc         1 CLA      0.016300
     83 HBC1       71.8909   55.5782   43.9933 dc         1 CLA      0.016300
     84 HBB2       78.8578   62.1381   45.9563 da         1 CLA      0.183000
     85 HBB1       79.6706   61.0046   44.6931 da         1 CLA      0.183000
     86 HBA2       79.4745   58.3033   33.2348 dc         1 CLA      0.029400
     87 HBA1       80.3879   58.4993   34.6388 dc         1 CLA      0.029400
     88 HAC2       70.6862   57.8074   43.8064 dc         1 CLA      0.029300
     89 HAC1       70.2638   57.4785   42.1909 dc         1 CLA      0.029300
     90 HAA2       77.6360   57.2899   34.4772 dc         1 CLA      0.028700
     91 HAA1       78.0150   58.9648   35.0971 dc         1 CLA      0.028700
     92 H203       83.8194   60.9161   48.0096 dc         1 CLA      0.065600
     93 H202       84.4734   62.1534   46.8987 dc         1 CLA      0.065600
     94 H201       82.7990   62.3506   47.5797 dc         1 CLA      0.065600
     95 H193       81.2565   59.5684   45.5169 dc         1 CLA      0.065600
     96 H192       82.1711   58.9040   46.8719 dc         1 CLA      0.065600
     97 H191       81.1153   60.3200   47.0773 dc         1 CLA      0.065600
     98 H172       84.4723   59.1538   46.1806 dc         1 CLA      0.027600
     99 H171       85.1173   60.6550   45.2772 dc         1 CLA      0.027600
    100 H162       83.4005   59.6377   43.4502 dc         1 CLA      0.002900
    101 H161       83.1646   58.3369   44.5676 dc         1 CLA      0.002900
    102 H152       85.5167   58.0496   44.7529 dc         1 CLA      0.029100
    103 H151       85.8650   59.2666   43.4101 dc         1 CLA      0.029100
    104 H143       84.4857   55.9062   44.1611 dc         1 CLA      0.063600
    105 H142       83.1948   56.4152   43.2559 dc         1 CLA      0.063600
    106 H141       84.3883   55.4299   42.4822 dc         1 CLA      0.063600
    107 H122       85.3162   58.8331   41.2184 dc         1 CLA      0.032500
    108 H121       83.6338   58.3255   41.5472 dc         1 CLA      0.032500
    109 H112       83.9564   57.7041   39.3173 dc         1 CLA      0.006600
    110 H111       83.9654   56.1789   40.1227 dc         1 CLA      0.006600
    111 H102       86.3634   56.1228   40.0989 dc         1 CLA      0.024100
    112 H101       86.3113   57.6613   39.1904 dc         1 CLA      0.024100
    113 HHD        71.5750   56.4235   40.4560 da         1 CLA      0.174300
    114 HHC        75.3452   60.3225   43.9694 da         1 CLA      0.136800
    115 HHB        79.9482   59.7476   39.5564 da         1 CLA      0.138300
    116 HBD        75.7128   56.2626   34.8515 dc         1 CLA      0.107700
    117 HAB        76.8434   62.2818   44.3334 da         1 CLA      0.155200
    118 H93        87.9518   55.5471   37.9548 dc         1 CLA      0.069500
    119 H92        87.1619   55.2988   36.5178 dc         1 CLA      0.069500
    120 H91        87.5916   56.8987   36.9265 dc         1 CLA      0.069500
    121 H8         85.1565   56.6280   37.2984 dc         1 CLA      0.029300
    122 H72        84.1194   54.6536   38.7271 dc         1 CLA      0.044400
    123 H71        85.8577   54.0108   38.6123 dc         1 CLA      0.044400
    124 H62        85.8741   53.4271   36.4859 dc         1 CLA      0.015600
    125 H61        84.6104   54.6460   36.0451 dc         1 CLA      0.015600
    126 H52        84.1502   52.1497   37.8145 dc         1 CLA      0.033200
    127 H51        84.0568   52.2316   35.9489 dc         1 CLA      0.033200
    128 H43        80.6711   53.0875   38.1467 dc         1 CLA      0.037000
    129 H42        81.1548   51.5309   37.4698 dc         1 CLA      0.037000
    130 H41        82.0297   52.0859   38.9015 dc         1 CLA      0.037000
    131 H3A        79.7091   59.1975   36.9166 dc         1 CLA      0.041100
    132 H2A        78.7246   56.4243   36.4605 dc         1 CLA      0.083100
    133 H2         82.2045   55.3006   36.9594 da         1 CLA      0.180900
    134 H18        82.6066   61.4596   45.2647 dc         1 CLA     -0.003900
    135 H13        86.1896   56.9605   42.5621 dc         1 CLA      0.019700
    136 H12        80.8758   53.7998   34.6611 dc         1 CLA      0.120400
    137 H11        82.3453   54.8678   34.2401 dc         1 CLA      0.120400
    138 C1         68.0573   60.8754   50.3181 Z1         2 LUT      0.509236
    139 C2         66.6861   60.6682   51.1038 Z2         2 LUT     -0.434695
    140 C3         65.7623   61.8201   51.2804 Z3         2 LUT      0.437453
    141 O3         65.6827   62.2020   52.7058 S1         2 LUT     -0.547129
    142 C4         66.1074   63.0255   50.4907 Z4         2 LUT     -0.468603
    143 C5         66.7486   62.7144   49.1966 Z5         2 LUT      0.279246
    144 C6         67.7300   61.7276   49.0947 Z6         2 LUT     -0.305473
    145 C7         68.1369   61.2585   47.8140 Z7         2 LUT      0.069402
    146 C8         68.9432   61.8752   46.8891 Z8         2 LUT     -0.191631
    147 C9         69.4585   61.5042   45.5575 Z9         2 LUT      0.196698
    148 C10        70.4021   62.2621   44.9152 Y1         2 LUT     -0.208611
    149 C11        70.9105   62.1991   43.5041 Y2         2 LUT      0.030784
    150 C12        72.0357   62.8083   43.2153 Y3         2 LUT     -0.220316
    151 C13        72.8937   62.7196   42.0676 Y4         2 LUT      0.215937
    152 C14        74.1542   63.2489   42.1447 Y5         2 LUT     -0.185793
    153 C15        75.2468   63.2737   41.2679 Y6         2 LUT     -0.057835
    154 C16        68.7754   59.5009   49.9637 Y7         2 LUT     -0.405615
    155 C17        69.0010   61.6367   51.2675 Y7         2 LUT     -0.405615
    156 C18        66.1274   63.4895   48.0409 Y9         2 LUT     -0.369639
    157 C19        68.7050   60.3839   44.8645 W1         2 LUT     -0.333362
    158 C20        72.4241   61.8734   40.8632 W2         2 LUT     -0.323439
    159 C21        86.7444   64.9513   35.5183 Z1         2 LUT      0.406104
    160 C22        87.3842   64.0781   34.3928 Z2         2 LUT     -0.404965
    161 C23        87.6259   64.7852   33.1183 Z3         2 LUT      0.391255
    162 O23        87.6787   63.7998   32.0340 S1         2 LUT     -0.528210
    163 C24        86.4573   65.7538   32.8026 W6         2 LUT     -0.258361
    164 C25        85.4746   66.0706   33.6239 Z5         2 LUT      0.133546
    165 C26        85.3994   65.4351   35.0329 W8         2 LUT     -0.147008
    166 C27        84.5363   66.1734   36.0122 Z7         2 LUT      0.023843
    167 C28        83.4240   65.6595   36.6772 Z8         2 LUT     -0.216987
    168 C29        82.6563   66.1731   37.8090 Z9         2 LUT      0.206524
    169 C30        81.5743   65.4347   38.3062 Y1         2 LUT     -0.215556
    170 C31        80.7134   65.5622   39.4725 Y2         2 LUT      0.025142
    171 C32        79.5899   64.7488   39.6255 Y3         2 LUT     -0.212209
    172 C33        78.5218   64.9398   40.6152 Y4         2 LUT      0.240937
    173 C34        77.3814   64.2094   40.4828 Y5         2 LUT     -0.218862
    174 C35        76.3458   64.0324   41.4969 Y6         2 LUT     -0.023547
    175 C36        87.8062   66.0746   35.7866 Y7         2 LUT     -0.393485
    176 C37        86.6927   64.1422   36.9151 Y7         2 LUT     -0.393485
    177 C38        84.2592   66.9096   33.1213 Y9         2 LUT     -0.387526
    178 C39        83.2852   67.4658   38.2964 W1         2 LUT     -0.322618
    179 C40        78.7676   66.1404   41.5250 W2         2 LUT     -0.358472
    180 H403       78.4918   67.0739   41.0713 R7         2 LUT      0.097720
    181 H402       77.9855   66.0611   42.2707 R7         2 LUT      0.097720
    182 H401       79.6939   66.1143   41.9868 R7         2 LUT      0.097720
    183 H393       82.7585   67.8062   39.1950 R4         2 LUT      0.082505
    184 H392       84.3485   67.2834   38.6144 R4         2 LUT      0.082505
    185 H391       83.1459   68.3556   37.6763 R4         2 LUT      0.082505
    186 H383       84.4367   67.8441   32.6160 R1         2 LUT      0.104030
    187 H382       83.5265   66.2944   32.5631 R1         2 LUT      0.104030
    188 H381       83.6800   67.3029   34.0020 R1         2 LUT      0.104030
    189 H373       86.1956   64.7036   37.7160 T4         2 LUT      0.089537
    190 H372       86.0989   63.2385   36.6845 T4         2 LUT      0.089537
    191 H371       87.7214   63.8322   37.2191 T4         2 LUT      0.089537
    192 H363       88.8175   65.7713   35.8443 T4         2 LUT      0.089537
    193 H362       87.8601   66.7287   34.9442 T4         2 LUT      0.089537
    194 H361       87.5646   66.5793   36.7139 T4         2 LUT      0.089537
    195 H222       88.2571   63.4896   34.7342 U2         2 LUT      0.127376
    196 H221       86.6584   63.3273   34.1965 U2         2 LUT      0.127376
    197 H203       72.9872   61.9841   39.9198 R7         2 LUT      0.087068
    198 H202       72.6433   60.8900   40.9694 R7         2 LUT      0.087068
    199 H201       71.3851   62.1689   40.4861 R7         2 LUT      0.087068
    200 H193       68.4845   59.4969   45.4671 R4         2 LUT      0.089716
    201 H192       67.8274   60.8440   44.4837 R4         2 LUT      0.089716
    202 H191       69.3805   59.9626   44.1588 R4         2 LUT      0.089716
    203 H183       65.1044   63.2348   47.8139 R1         2 LUT      0.094572
    204 H182       66.1739   64.5749   48.2088 R1         2 LUT      0.094572
    205 H181       66.7555   63.4023   47.0695 R1         2 LUT      0.094572
    206 H173       69.9301   61.7530   50.7076 T4         2 LUT      0.093752
    207 H172       68.6413   62.6368   51.5129 T4         2 LUT      0.093752
    208 H171       69.1442   61.0688   52.1617 T4         2 LUT      0.093752
    209 H163       68.8819   58.9959   50.9108 T4         2 LUT      0.093752
    210 H162       68.0850   58.8350   49.4073 T4         2 LUT      0.093752
    211 H161       69.7450   59.5809   49.5044 T4         2 LUT      0.093752
    212 HO3        64.9362   61.9218   53.1723 Q1         2 LUT      0.300121
    213 H8         69.3023   62.8202   47.2051 U7         2 LUT      0.080784
    214 H7         67.8135   60.3302   47.5640 U6         2 LUT      0.042190
    215 H42        65.2053   63.6883   50.3832 U5         2 LUT      0.145166
    216 H41        66.8320   63.6254   51.0062 U5         2 LUT      0.145166
    217 H35        76.5347   64.4334   42.4600 T3         2 LUT      0.077919
    218 H34        77.2461   63.6985   39.4664 T2         2 LUT      0.073626
    219 H32        79.3670   64.0493   38.8083 T1         2 LUT      0.092510
    220 H31        80.8653   66.3343   40.1195 U9         2 LUT      0.070048
    221 H30        81.3090   64.4638   37.8685 U8         2 LUT      0.085442
    222 H3         64.7316   61.5898   50.9008 U3         2 LUT     -0.031596
    223 H28        83.0617   64.7858   36.1610 U7         2 LUT      0.084728
    224 H27        84.8791   67.1164   36.3833 U6         2 LUT      0.087291
    225 H26        84.8580   64.4213   34.8368 Q6         2 LUT      0.075325
    226 H24        86.2272   66.0839   31.7904 Q5         2 LUT      0.094482
    227 H23        88.5023   65.4452   33.1112 U3         2 LUT     -0.024869
    228 H22        66.0254   60.0794   50.4190 U2         2 LUT      0.127376
    229 H21        66.8171   60.1447   52.0655 U2         2 LUT      0.127376
    230 H15        75.1370   62.7538   40.3313 T3         2 LUT      0.093200
    231 H14        74.4114   63.6619   43.0593 T2         2 LUT      0.068865
    232 H12        72.4760   63.3364   44.0117 T1         2 LUT      0.095507
    233 H11        70.4585   61.5062   42.7833 U9         2 LUT      0.068930
    234 H10        70.8439   63.0953   45.4302 U8         2 LUT      0.083911
    235 H1         88.0558   64.1991   31.2054 Q1         2 LUT      0.297311
@<TRIPOS>BOND
    1     6     1 1
    2     7     2 1
    3     8     3 1
    4     9     4 1
    5    11     4 1
    6    12     6 1
    7    13     9 1
    8    16     9 1
    9    25     5 1
   10    25    16 1
   11    26    10 1
   12    26    17 1
   13    27    18 1
   14    28    14 1
   15    28    19 1
   16    29    12 1
   17    30    13 1
   18    31    24 1
   19    32     1 1
   20    32    25 1
   21    33    21 1
   22    33    26 1
   23    34    22 1
   24    34    27 1
   25    35    23 1
   26    35    28 1
   27    36    12 1
   28    36    24 1
   29    37    13 1
   30    37    15 1
   31    38    31 1
   32    39    20 1
   33    39    32 1
   34    40     2 1
   35    40    33 1
   36    41     3 1
   37    41    34 1
   38    42     4 1
   39    42    35 1
   40    43    38 1
   41    44     5 1
   42    44    17 1
   43    44    39 1
   44    45    10 1
   45    45    18 1
   46    45    40 1
   47    46    19 1
   48    46    41 1
   49    47    14 1
   50    47    16 1
   51    47    42 1
   52    48    38 1
   53    49    48 1
   54    50    49 1
   55    51    50 1
   56    52    51 1
   57    53    51 1
   58    54    53 1
   59    55    54 1
   60    56    55 1
   61    57    56 1
   62    58    56 1
   63    59    58 1
   64    60    59 1
   65    61    60 1
   66    62    61 1
   67    63    61 1
   68    64    27 1
   69    64    46 1
   70    65     5 1
   71    65    10 1
   72    65    64 1
   73    65    14 1
   74    66    23 1
   75    67    23 1
   76    68    23 1
   77    69    22 1
   78    70    22 1
   79    71    22 1
   80    72    21 1
   81    73    21 1
   82    74    21 1
   83    75    20 1
   84    76    20 1
   85    77    20 1
   86    78    15 1
   87    79    15 1
   88    80    15 1
   89    81     8 1
   90    82     8 1
   91    83     8 1
   92    84     7 1
   93    85     7 1
   94    86     6 1
   95    87     6 1
   96    88     3 1
   97    89     3 1
   98    90     1 1
   99    91     1 1
  100    92    63 1
  101    93    63 1
  102    94    63 1
  103    95    62 1
  104    96    62 1
  105    97    62 1
  106    98    60 1
  107    99    60 1
  108   100    59 1
  109   101    59 1
  110   102    58 1
  111   103    58 1
  112   104    57 1
  113   105    57 1
  114   106    57 1
  115   107    55 1
  116   108    55 1
  117   109    54 1
  118   110    54 1
  119   111    53 1
  120   112    53 1
  121   113    19 1
  122   114    18 1
  123   115    17 1
  124   116     9 1
  125   117     2 1
  126   118    52 1
  127   119    52 1
  128   120    52 1
  129   121    51 1
  130   122    50 1
  131   123    50 1
  132   124    49 1
  133   125    49 1
  134   126    48 1
  135   127    48 1
  136   128    43 1
  137   129    43 1
  138   130    43 1
  139   131    39 1
  140   132    32 1
  141   133    31 1
  142   134    61 1
  143   135    56 1
  144   136    24 1
  145   137    24 1
  146   139   138 1
  147   140   139 1
  148   141   140 1
  149   142   140 1
  150   143   142 1
  151   144   138 1
  152   144   143 1
  153   145   144 1
  154   146   145 1
  155   147   146 1
  156   148   147 1
  157   149   148 1
  158   150   149 1
  159   151   150 1
  160   152   151 1
  161   153   152 1
  162   154   138 1
  163   155   138 1
  164   156   143 1
  165   157   147 1
  166   158   151 1
  167   160   159 1
  168   161   160 1
  169   162   161 1
  170   163   161 1
  171   164   163 1
  172   165   159 1
  173   165   164 1
  174   166   165 1
  175   167   166 1
  176   168   167 1
  177   169   168 1
  178   170   169 1
  179   171   170 1
  180   172   171 1
  181   173   172 1
  182   174   153 1
  183   174   173 1
  184   175   159 1
  185   176   159 1
  186   177   164 1
  187   178   168 1
  188   179   172 1
  189   180   179 1
  190   181   179 1
  191   182   179 1
  192   183   178 1
  193   184   178 1
  194   185   178 1
  195   186   177 1
  196   187   177 1
  197   188   177 1
  198   189   176 1
  199   190   176 1
  200   191   176 1
  201   192   175 1
  202   193   175 1
  203   194   175 1
  204   195   160 1
  205   196   160 1
  206   197   158 1
  207   198   158 1
  208   199   158 1
  209   200   157 1
  210   201   157 1
  211   202   157 1
  212   203   156 1
  213   204   156 1
  214   205   156 1
  215   206   155 1
  216   207   155 1
  217   208   155 1
  218   209   154 1
  219   210   154 1
  220   211   154 1
  221   212   141 1
  222   213   146 1
  223   214   145 1
  224   215   142 1
  225   216   142 1
  226   217   174 1
  227   218   173 1
  228   219   171 1
  229   220   170 1
  230   221   169 1
  231   222   140 1
  232   223   167 1
  233   224   166 1
  234   225   165 1
  235   226   163 1
  236   227   161 1
  237   228   139 1
  238   229   139 1
  239   230   153 1
  240   231   152 1
  241   232   150 1
  242   233   149 1
  243   234   148 1
  244   235   162 1
  245   65    153 1
  246   65    174 1
@<TRIPOS>SUBSTRUCTURE
      1 CLA               1 ****               0 ****  **** 
      2 LUT             138 ****               0 ****  **** 
