@<TRIPOS>MOLECULE
Cpptraj generated mol2 file.
  235   246     2     0     0
SMALL
USER_CHARGES


@<TRIPOS>ATOM
      1 CAA        77.4879   57.6251   35.2729 a2         1 CLA     -0.055900
      2 CAB        77.5722   62.0992   44.0466 c8         1 CLA     -0.148500
      3 CAC        70.4670   58.5104   43.9009 a2         1 CLA     -0.012600
      4 CAD        73.4581   55.0980   36.9823 ck         1 CLA      0.398800
      5 NA         76.4336   58.4730   38.6609 ns         1 CLA     -0.225500
      6 CBA        78.7083   57.2797   34.4916 a2         1 CLA     -0.135000
      7 CBB        78.7712   62.1501   44.7240 c0         1 CLA     -0.395200
      8 CBC        70.6666   56.9832   44.2469 a3         1 CLA     -0.037700
      9 CBD        74.8503   55.5510   36.6362 a1         1 CLA     -0.053900
     10 NB         76.2471   60.2222   41.0844 nm         1 CLA     -0.295700
     11 OBD        72.8977   54.1256   36.4861 o2         1 CLA     -0.494600
     12 CGA        79.0371   55.7553   34.3380 c4         1 CLA      0.827000
     13 CGD        75.7833   54.4032   36.7652 c4         1 CLA      0.655300
     14 ND         73.6036   57.6291   39.3539 nm         1 CLA     -0.291600
     15 CED        76.2716   52.5005   38.1505 a3         1 CLA      0.005400
     16 CHA        75.0793   56.7963   37.4907 cs         1 CLA     -0.123800
     17 CHB        78.1961   59.8940   39.5539 aa         1 CLA     -0.291900
     18 CHC        74.9974   60.6553   43.1735 aa         1 CLA     -0.090400
     19 CHD        71.6623   57.7750   40.8757 aa         1 CLA     -0.052000
     20 CMA        79.8539   57.8118   37.8886 a3         1 CLA     -0.230700
     21 CMB        79.7037   61.6609   41.5029 a3         1 CLA     -0.180800
     22 CMC        72.8842   59.9813   45.2536 a3         1 CLA     -0.134000
     23 CMD        70.5495   55.5377   38.9254 a3         1 CLA     -0.141100
     24 C1         79.8291   53.7301   35.2584 a2         1 CLA      0.023000
     25 C1A        76.3213   57.5672   37.6547 ac         1 CLA     -0.015100
     26 C1B        77.5394   60.4763   40.6437 cr         1 CLA      0.054700
     27 C1C        73.7476   59.9840   42.8089 cn         1 CLA     -0.005600
     28 C1D        72.2933   57.2190   39.7592 ap         1 CLA     -0.047300
     29 O1A        78.8245   55.2056   33.2619 o2         1 CLA     -0.610800
     30 O1D        76.7016   54.0868   35.9608 o2         1 CLA     -0.558200
     31 C2         80.3154   53.3449   36.6784 c8         1 CLA     -0.325100
     32 C2A        77.5929   57.3965   36.8111 a1         1 CLA      0.098600
     33 C2B        78.2690   61.2727   41.6221 cb         1 CLA      0.088500
     34 C2C        72.7550   59.7213   43.8250 cb         1 CLA      0.053700
     35 C2D        71.8965   56.1377   38.8900 cb         1 CLA      0.058900
     36 O2A        79.4100   55.1049   35.4854 o1         1 CLA     -0.437200
     37 O2D        75.5604   53.7297   37.9310 o1         1 CLA     -0.357600
     38 C3         81.5766   53.3017   37.0102 c5         1 CLA      0.031200
     39 C3A        78.5361   58.4903   37.4302 a1         1 CLA      0.166800
     40 C3B        77.3699   61.4957   42.7065 cb         1 CLA      0.035000
     41 C3C        71.6794   59.0008   43.1683 cb         1 CLA     -0.089900
     42 C3D        72.9814   55.9451   38.0337 cb         1 CLA     -0.035900
     43 C4         82.3710   52.0566   36.4728 a3         1 CLA     -0.053300
     44 C4A        77.7103   59.0125   38.6316 ac         1 CLA      0.001800
     45 C4B        76.0926   60.8702   42.3160 cn         1 CLA     -0.020900
     46 C4C        72.1872   58.7131   41.8094 cr         1 CLA     -0.044400
     47 C4D        73.9314   56.9129   38.2592 c6         1 CLA     -0.046000
     48 C5         82.1872   54.4630   37.8443 a2         1 CLA     -0.070400
     49 C6         83.7183   54.5668   38.0906 a2         1 CLA      0.043900
     50 C7         84.0695   55.5622   39.1901 a2         1 CLA     -0.150000
     51 C8         83.5846   57.0668   39.0853 a1         1 CLA      0.064200
     52 C9         84.3512   57.6925   37.9099 a3         1 CLA     -0.259300
     53 C10        83.6622   57.8428   40.4060 a2         1 CLA     -0.071900
     54 C11        82.4454   57.6341   41.4243 a2         1 CLA      0.014500
     55 C12        82.5841   58.4264   42.7259 a2         1 CLA     -0.112100
     56 C13        83.6530   57.8886   43.7914 a1         1 CLA      0.089200
     57 C14        83.1865   56.6061   44.5012 a3         1 CLA     -0.239100
     58 C15        84.2592   59.0195   44.7676 a2         1 CLA     -0.102200
     59 C16        83.3055   59.4916   45.7973 a2         1 CLA      0.023900
     60 C17        83.9459   60.6000   46.7303 a2         1 CLA     -0.105700
     61 C18        83.0058   61.5075   47.5392 a1         1 CLA      0.206800
     62 C19        82.6122   62.7999   46.7509 a3         1 CLA     -0.280100
     63 C20        81.6571   60.7498   47.9242 a3         1 CLA     -0.280100
     64 NC         73.4470   59.2757   41.7009 nx         1 CLA     -0.309200
     65 MG         74.8440   59.0044   40.1309 mg         1 CLA      0.895000
     66 HMD3       69.8142   56.2859   38.6782 dc         1 CLA      0.064300
     67 HMD2       70.6171   54.6105   38.3306 dc         1 CLA      0.064300
     68 HMD1       70.3115   55.2787   40.0745 dc         1 CLA      0.064300
     69 HMC3       71.9401   59.9092   45.7764 dc         1 CLA      0.052100
     70 HMC2       73.6600   59.3398   45.6289 dc         1 CLA      0.052100
     71 HMC1       73.1114   61.0205   45.3339 dc         1 CLA      0.052100
     72 HMB3       80.4824   60.8914   41.5881 dc         1 CLA      0.063600
     73 HMB2       79.8364   62.1577   40.5925 dc         1 CLA      0.063600
     74 HMB1       79.9032   62.5018   42.1808 dc         1 CLA      0.063600
     75 HMA3       80.4544   58.5896   38.3561 dc         1 CLA      0.058300
     76 HMA2       79.6656   57.0239   38.6045 dc         1 CLA      0.058300
     77 HMA1       80.5004   57.5765   37.0233 dc         1 CLA      0.058300
     78 HED3       75.9123   51.9084   38.9635 dc         1 CLA      0.079300
     79 HED2       76.1370   51.7757   37.2822 dc         1 CLA      0.079300
     80 HED1       77.3109   52.5817   38.1919 dc         1 CLA      0.079300
     81 HBC3       71.6039   56.7867   44.7669 dc         1 CLA      0.016300
     82 HBC2       69.8065   56.7662   44.9487 dc         1 CLA      0.016300
     83 HBC1       70.6475   56.3424   43.3907 dc         1 CLA      0.016300
     84 HBB2       78.8401   62.5815   45.7366 da         1 CLA      0.183000
     85 HBB1       79.6661   61.6686   44.3854 da         1 CLA      0.183000
     86 HBA2       78.5783   57.7714   33.4956 dc         1 CLA      0.029400
     87 HBA1       79.5457   57.8171   34.9356 dc         1 CLA      0.029400
     88 HAC2       70.2188   59.1724   44.7763 dc         1 CLA      0.029300
     89 HAC1       69.6247   58.6041   43.2063 dc         1 CLA      0.029300
     90 HAA2       76.7771   56.8686   34.8761 dc         1 CLA      0.028700
     91 HAA1       77.2073   58.6935   35.0871 dc         1 CLA      0.028700
     92 H203       81.0560   61.4809   48.3785 dc         1 CLA      0.065600
     93 H202       81.1501   60.3355   47.0368 dc         1 CLA      0.065600
     94 H201       81.7029   59.9815   48.7444 dc         1 CLA      0.065600
     95 H193       83.5306   63.2642   46.6651 dc         1 CLA      0.065600
     96 H192       82.1051   62.5201   45.8071 dc         1 CLA      0.065600
     97 H191       81.9390   63.4178   47.3404 dc         1 CLA      0.065600
     98 H172       84.5486   60.0101   47.4564 dc         1 CLA      0.027600
     99 H171       84.6257   61.3089   46.1862 dc         1 CLA      0.027600
    100 H162       82.3576   59.8055   45.2727 dc         1 CLA      0.002900
    101 H161       83.0571   58.6240   46.4736 dc         1 CLA      0.002900
    102 H152       85.1874   58.6543   45.3127 dc         1 CLA      0.029100
    103 H151       84.5093   59.8626   44.0781 dc         1 CLA      0.029100
    104 H143       83.0396   55.8027   43.7415 dc         1 CLA      0.063600
    105 H142       84.1159   56.2935   45.0420 dc         1 CLA      0.063600
    106 H141       82.2930   56.8059   45.1379 dc         1 CLA      0.063600
    107 H122       82.8109   59.4554   42.4087 dc         1 CLA      0.032500
    108 H121       81.6096   58.5509   43.2480 dc         1 CLA      0.032500
    109 H112       81.4605   57.9607   41.0693 dc         1 CLA      0.006600
    110 H111       82.3603   56.5601   41.6386 dc         1 CLA      0.006600
    111 H102       84.6026   57.6460   40.9230 dc         1 CLA      0.024100
    112 H101       83.6279   58.9348   40.2265 dc         1 CLA      0.024100
    113 HHD        70.6552   57.3910   41.0886 da         1 CLA      0.174300
    114 HHC        75.0715   61.0095   44.1694 da         1 CLA      0.136800
    115 HHB        79.2348   60.2098   39.3537 da         1 CLA      0.138300
    116 HBD        74.7236   55.7950   35.5674 dc         1 CLA      0.107700
    117 HAB        76.7374   62.4618   44.5378 da         1 CLA      0.155200
    118 H93        85.3720   57.2648   37.9366 dc         1 CLA      0.069500
    119 H92        83.8184   57.3672   37.1271 dc         1 CLA      0.069500
    120 H91        84.4006   58.7499   37.8744 dc         1 CLA      0.069500
    121 H8         82.5564   57.0924   38.8620 dc         1 CLA      0.029300
    122 H72        83.6236   55.1053   40.1006 dc         1 CLA      0.044400
    123 H71        85.1548   55.4944   39.2129 dc         1 CLA      0.044400
    124 H62        84.1743   53.6022   38.2553 dc         1 CLA      0.015600
    125 H61        84.1502   54.8095   37.1207 dc         1 CLA      0.015600
    126 H52        82.0041   55.4638   37.3841 dc         1 CLA      0.033200
    127 H51        81.7293   54.6570   38.8209 dc         1 CLA      0.033200
    128 H43        82.7671   51.4757   37.3093 dc         1 CLA      0.037000
    129 H42        81.7600   51.4046   35.9314 dc         1 CLA      0.037000
    130 H41        83.2433   52.3590   35.9006 dc         1 CLA      0.037000
    131 H3A        78.6740   59.2724   36.6275 dc         1 CLA      0.041100
    132 H2A        77.9804   56.4035   36.9381 dc         1 CLA      0.083100
    133 H2         79.5898   52.9276   37.3062 da         1 CLA      0.180900
    134 H18        83.5417   61.8575   48.4038 dc         1 CLA     -0.003900
    135 H13        84.5431   57.4997   43.2623 dc         1 CLA      0.019700
    136 H12        78.9199   53.0955   35.0294 dc         1 CLA      0.120400
    137 H11        80.6684   53.6899   34.5732 dc         1 CLA      0.120400
    138 C1         67.2296   62.8015   50.8746 Z1         2 LUT      0.509236
    139 C2         67.2763   64.2889   51.5098 Z2         2 LUT     -0.434695
    140 C3         65.9367   65.0466   51.4845 Z3         2 LUT      0.437453
    141 O3         66.2060   66.3946   51.6654 S1         2 LUT     -0.547129
    142 C4         65.2513   64.8443   50.1884 Z4         2 LUT     -0.468603
    143 C5         65.8912   63.9493   49.1122 Z5         2 LUT      0.279246
    144 C6         66.7923   63.0499   49.4918 Z6         2 LUT     -0.305473
    145 C7         67.5151   62.2656   48.5304 Z7         2 LUT      0.069402
    146 C8         68.2545   62.6024   47.4899 Z8         2 LUT     -0.191631
    147 C9         68.7601   61.9203   46.3366 Z9         2 LUT      0.196698
    148 C10        69.7288   62.4281   45.5188 Y1         2 LUT     -0.208611
    149 C11        70.2650   62.1087   44.1637 Y2         2 LUT      0.030784
    150 C12        71.3265   62.8599   43.6909 Y3         2 LUT     -0.220316
    151 C13        72.1922   62.9015   42.5277 Y4         2 LUT      0.215937
    152 C14        73.3677   63.6362   42.7037 Y5         2 LUT     -0.185793
    153 C15        74.3604   63.8803   41.6576 Y6         2 LUT     -0.057835
    154 C16        66.0991   61.9668   51.5968 Y7         2 LUT     -0.405615
    155 C17        68.5904   62.1050   51.0682 Y7         2 LUT     -0.405615
    156 C18        65.5683   64.3652   47.6849 Y9         2 LUT     -0.369639
    157 C19        67.8274   60.7315   45.9669 W1         2 LUT     -0.333362
    158 C20        71.7874   62.2365   41.1717 W2         2 LUT     -0.323439
    159 C21        86.1972   64.6998   35.5859 Z1         2 LUT      0.406104
    160 C22        86.9572   64.4014   34.2289 Z2         2 LUT     -0.404965
    161 C23        86.8548   65.4303   33.1264 Z3         2 LUT      0.391255
    162 O23        87.5056   64.9359   31.9479 S1         2 LUT     -0.528210
    163 C24        85.3938   65.9336   33.0542 W6         2 LUT     -0.258361
    164 C25        84.3878   65.7015   33.8981 Z5         2 LUT      0.133546
    165 C26        84.6180   64.9852   35.2207 W8         2 LUT     -0.147008
    166 C27        83.9335   65.5824   36.5012 Z7         2 LUT      0.023843
    167 C28        82.7400   65.0552   36.8218 Z8         2 LUT     -0.216987
    168 C29        82.0435   65.4823   37.9792 Z9         2 LUT      0.206524
    169 C30        80.8762   64.9114   38.3536 Y1         2 LUT     -0.215556
    170 C31        80.1071   65.1789   39.5427 Y2         2 LUT      0.025142
    171 C32        78.7990   64.8546   39.6756 Y3         2 LUT     -0.212209
    172 C33        77.9240   65.0305   40.8368 Y4         2 LUT      0.240937
    173 C34        76.6345   64.4698   40.7848 Y5         2 LUT     -0.218862
    174 C35        75.6481   64.3231   41.8964 Y6         2 LUT     -0.023547
    175 C36        86.9962   65.7359   36.4049 Y7         2 LUT     -0.393485
    176 C37        86.4342   63.4511   36.4697 Y7         2 LUT     -0.393485
    177 C38        83.0231   66.0833   33.6132 Y9         2 LUT     -0.387526
    178 C39        82.7647   66.5090   38.9340 W1         2 LUT     -0.322618
    179 C40        78.4855   65.8662   41.9395 W2         2 LUT     -0.358472
    180 H403       77.8885   66.2161   42.7110 R7         2 LUT      0.097720
    181 H402       79.3227   65.4314   42.4372 R7         2 LUT      0.097720
    182 H401       78.8470   66.8220   41.4894 R7         2 LUT      0.097720
    183 H393       82.3370   66.5281   39.9424 R4         2 LUT      0.082505
    184 H392       83.8401   66.2217   39.1359 R4         2 LUT      0.082505
    185 H391       82.7437   67.5517   38.5794 R4         2 LUT      0.082505
    186 H383       82.3682   65.2997   33.9393 R1         2 LUT      0.104030
    187 H382       82.7362   67.0615   34.0644 R1         2 LUT      0.104030
    188 H381       83.0184   66.2825   32.5655 R1         2 LUT      0.104030
    189 H373       86.0632   63.5372   37.5111 T4         2 LUT      0.089537
    190 H372       85.8826   62.6376   36.0333 T4         2 LUT      0.089537
    191 H371       87.4268   63.2911   36.4178 T4         2 LUT      0.089537
    192 H363       87.0371   66.6993   35.9257 T4         2 LUT      0.089537
    193 H362       86.6416   65.9609   37.4006 T4         2 LUT      0.089537
    194 H361       88.0072   65.3944   36.5422 T4         2 LUT      0.089537
    195 H222       88.0982   64.1877   34.2556 U2         2 LUT      0.127376
    196 H221       86.5302   63.4664   33.8608 U2         2 LUT      0.127376
    197 H203       71.3575   61.2667   41.2892 R7         2 LUT      0.087068
    198 H202       71.2329   62.9351   40.4937 R7         2 LUT      0.087068
    199 H201       72.6134   62.0069   40.5710 R7         2 LUT      0.087068
    200 H193       67.9776   59.8004   46.4787 R4         2 LUT      0.089716
    201 H192       66.7809   61.0434   46.1158 R4         2 LUT      0.089716
    202 H191       67.8215   60.5190   44.8858 R4         2 LUT      0.089716
    203 H183       64.5530   64.6811   47.7518 R1         2 LUT      0.094572
    204 H182       66.1895   65.2312   47.4189 R1         2 LUT      0.094572
    205 H181       65.7152   63.5328   46.9734 R1         2 LUT      0.094572
    206 H173       68.5595   61.1098   50.6259 T4         2 LUT      0.093752
    207 H172       69.4070   62.6075   50.5345 T4         2 LUT      0.093752
    208 H171       68.8384   62.1610   52.1587 T4         2 LUT      0.093752
    209 H163       66.0105   60.8669   51.3317 T4         2 LUT      0.093752
    210 H162       66.2656   61.9146   52.6501 T4         2 LUT      0.093752
    211 H161       65.1137   62.3884   51.5000 T4         2 LUT      0.093752
    212 HO3        65.4705   66.8560   52.0814 Q1         2 LUT      0.300121
    213 H8         68.5723   63.6677   47.4868 U7         2 LUT      0.080784
    214 H7         67.1894   61.1769   48.4073 U6         2 LUT      0.042190
    215 H42        64.2819   64.3098   50.3245 U5         2 LUT      0.145166
    216 H41        65.0259   65.8143   49.7178 U5         2 LUT      0.145166
    217 H35        76.0631   64.4703   42.9615 T3         2 LUT      0.077919
    218 H34        76.3399   64.0351   39.8749 T2         2 LUT      0.073626
    219 H32        78.4183   64.4372   38.7153 T1         2 LUT      0.092510
    220 H31        80.5685   65.6016   40.5071 U9         2 LUT      0.070048
    221 H30        80.4754   64.1792   37.6518 U8         2 LUT      0.085442
    222 H3         65.1944   64.7184   52.2458 U3         2 LUT     -0.031596
    223 H28        82.2995   64.2958   36.1621 U7         2 LUT      0.084728
    224 H27        84.4373   66.3888   37.0587 U6         2 LUT      0.087291
    225 H26        84.4074   63.8981   35.0035 Q6         2 LUT      0.075325
    226 H24        85.1851   66.4122   32.0404 Q5         2 LUT      0.094482
    227 H23        87.4983   66.2991   33.3100 U3         2 LUT     -0.024869
    228 H22        67.4611   64.2936   52.5852 U2         2 LUT      0.127376
    229 H21        68.1206   64.8229   51.1746 U2         2 LUT      0.127376
    230 H15        74.0855   63.7582   40.6180 T3         2 LUT      0.093200
    231 H14        73.6244   64.1627   43.6519 T2         2 LUT      0.068865
    232 H12        71.6055   63.6026   44.5179 T1         2 LUT      0.095507
    233 H11        69.8343   61.3495   43.5101 U9         2 LUT      0.068930
    234 H10        70.1138   63.3627   45.8552 U8         2 LUT      0.083911
    235 H1         86.8081   64.5320   31.4180 Q1         2 LUT      0.297311
@<TRIPOS>BOND
    1     6     1 1
    2     7     2 1
    3     8     3 1
    4     9     4 1
    5    11     4 1
    6    12     6 1
    7    13     9 1
    8    16     9 1
    9    25     5 1
   10    25    16 1
   11    26    10 1
   12    26    17 1
   13    27    18 1
   14    28    14 1
   15    28    19 1
   16    29    12 1
   17    30    13 1
   18    31    24 1
   19    32     1 1
   20    32    25 1
   21    33    21 1
   22    33    26 1
   23    34    22 1
   24    34    27 1
   25    35    23 1
   26    35    28 1
   27    36    12 1
   28    36    24 1
   29    37    13 1
   30    37    15 1
   31    38    31 1
   32    39    20 1
   33    39    32 1
   34    40     2 1
   35    40    33 1
   36    41     3 1
   37    41    34 1
   38    42     4 1
   39    42    35 1
   40    43    38 1
   41    44     5 1
   42    44    17 1
   43    44    39 1
   44    45    10 1
   45    45    18 1
   46    45    40 1
   47    46    19 1
   48    46    41 1
   49    47    14 1
   50    47    16 1
   51    47    42 1
   52    48    38 1
   53    49    48 1
   54    50    49 1
   55    51    50 1
   56    52    51 1
   57    53    51 1
   58    54    53 1
   59    55    54 1
   60    56    55 1
   61    57    56 1
   62    58    56 1
   63    59    58 1
   64    60    59 1
   65    61    60 1
   66    62    61 1
   67    63    61 1
   68    64    27 1
   69    64    46 1
   70    65     5 1
   71    65    10 1
   72    65    64 1
   73    65    14 1
   74    66    23 1
   75    67    23 1
   76    68    23 1
   77    69    22 1
   78    70    22 1
   79    71    22 1
   80    72    21 1
   81    73    21 1
   82    74    21 1
   83    75    20 1
   84    76    20 1
   85    77    20 1
   86    78    15 1
   87    79    15 1
   88    80    15 1
   89    81     8 1
   90    82     8 1
   91    83     8 1
   92    84     7 1
   93    85     7 1
   94    86     6 1
   95    87     6 1
   96    88     3 1
   97    89     3 1
   98    90     1 1
   99    91     1 1
  100    92    63 1
  101    93    63 1
  102    94    63 1
  103    95    62 1
  104    96    62 1
  105    97    62 1
  106    98    60 1
  107    99    60 1
  108   100    59 1
  109   101    59 1
  110   102    58 1
  111   103    58 1
  112   104    57 1
  113   105    57 1
  114   106    57 1
  115   107    55 1
  116   108    55 1
  117   109    54 1
  118   110    54 1
  119   111    53 1
  120   112    53 1
  121   113    19 1
  122   114    18 1
  123   115    17 1
  124   116     9 1
  125   117     2 1
  126   118    52 1
  127   119    52 1
  128   120    52 1
  129   121    51 1
  130   122    50 1
  131   123    50 1
  132   124    49 1
  133   125    49 1
  134   126    48 1
  135   127    48 1
  136   128    43 1
  137   129    43 1
  138   130    43 1
  139   131    39 1
  140   132    32 1
  141   133    31 1
  142   134    61 1
  143   135    56 1
  144   136    24 1
  145   137    24 1
  146   139   138 1
  147   140   139 1
  148   141   140 1
  149   142   140 1
  150   143   142 1
  151   144   138 1
  152   144   143 1
  153   145   144 1
  154   146   145 1
  155   147   146 1
  156   148   147 1
  157   149   148 1
  158   150   149 1
  159   151   150 1
  160   152   151 1
  161   153   152 1
  162   154   138 1
  163   155   138 1
  164   156   143 1
  165   157   147 1
  166   158   151 1
  167   160   159 1
  168   161   160 1
  169   162   161 1
  170   163   161 1
  171   164   163 1
  172   165   159 1
  173   165   164 1
  174   166   165 1
  175   167   166 1
  176   168   167 1
  177   169   168 1
  178   170   169 1
  179   171   170 1
  180   172   171 1
  181   173   172 1
  182   174   153 1
  183   174   173 1
  184   175   159 1
  185   176   159 1
  186   177   164 1
  187   178   168 1
  188   179   172 1
  189   180   179 1
  190   181   179 1
  191   182   179 1
  192   183   178 1
  193   184   178 1
  194   185   178 1
  195   186   177 1
  196   187   177 1
  197   188   177 1
  198   189   176 1
  199   190   176 1
  200   191   176 1
  201   192   175 1
  202   193   175 1
  203   194   175 1
  204   195   160 1
  205   196   160 1
  206   197   158 1
  207   198   158 1
  208   199   158 1
  209   200   157 1
  210   201   157 1
  211   202   157 1
  212   203   156 1
  213   204   156 1
  214   205   156 1
  215   206   155 1
  216   207   155 1
  217   208   155 1
  218   209   154 1
  219   210   154 1
  220   211   154 1
  221   212   141 1
  222   213   146 1
  223   214   145 1
  224   215   142 1
  225   216   142 1
  226   217   174 1
  227   218   173 1
  228   219   171 1
  229   220   170 1
  230   221   169 1
  231   222   140 1
  232   223   167 1
  233   224   166 1
  234   225   165 1
  235   226   163 1
  236   227   161 1
  237   228   139 1
  238   229   139 1
  239   230   153 1
  240   231   152 1
  241   232   150 1
  242   233   149 1
  243   234   148 1
  244   235   162 1
  245   65    153 1
  246   65    174 1
@<TRIPOS>SUBSTRUCTURE
      1 CLA               1 ****               0 ****  **** 
      2 LUT             138 ****               0 ****  **** 
