@<TRIPOS>MOLECULE
Cpptraj generated mol2 file.
  235   246     2     0     0
SMALL
USER_CHARGES


@<TRIPOS>ATOM
      1 CAA        79.7704   57.4600   34.5306 a2         1 CLA     -0.055900
      2 CAB        79.6253   61.5355   43.4735 c8         1 CLA     -0.148500
      3 CAC        72.9215   57.2622   43.1793 a2         1 CLA     -0.012600
      4 CAD        75.6489   55.0808   35.7287 ck         1 CLA      0.398800
      5 NA         78.7281   58.1014   37.9388 ns         1 CLA     -0.225500
      6 CBA        81.0827   57.2564   33.6547 a2         1 CLA     -0.135000
      7 CBB        80.7778   61.6931   44.1057 c0         1 CLA     -0.395200
      8 CBC        73.0587   55.7982   43.4375 a3         1 CLA     -0.037700
      9 CBD        77.1824   55.4710   35.5005 a1         1 CLA     -0.053900
     10 NB         78.5300   59.7514   40.4280 nm         1 CLA     -0.295700
     11 OBD        75.0267   54.3891   34.8977 o2         1 CLA     -0.494600
     12 CGA        81.2709   55.8178   33.2577 c4         1 CLA      0.827000
     13 CGD        78.0523   54.2031   35.4727 c4         1 CLA      0.655300
     14 ND         75.9000   57.0990   38.5132 nm         1 CLA     -0.291600
     15 CED        78.6546   52.0918   36.5268 a3         1 CLA      0.005400
     16 CHA        77.4956   56.4268   36.6622 cs         1 CLA     -0.123800
     17 CHB        80.3871   59.6619   38.7566 aa         1 CLA     -0.291900
     18 CHC        77.1519   59.9284   42.4592 aa         1 CLA     -0.090400
     19 CHD        74.0062   57.0068   40.0781 aa         1 CLA     -0.052000
     20 CMA        82.0041   57.0538   37.5144 a3         1 CLA     -0.230700
     21 CMB        81.6958   61.6092   40.8476 a3         1 CLA     -0.180800
     22 CMC        74.9848   59.1617   44.5361 a3         1 CLA     -0.134000
     23 CMD        72.7137   55.2389   37.9797 a3         1 CLA     -0.141100
     24 C1         82.1821   53.7732   34.1978 a2         1 CLA      0.023000
     25 C1A        78.6115   57.2604   36.8982 ac         1 CLA     -0.015100
     26 C1B        79.7367   60.1906   39.9071 cr         1 CLA      0.054700
     27 C1C        75.9994   59.0826   42.1831 cn         1 CLA     -0.005600
     28 C1D        74.6540   56.6979   38.8806 ap         1 CLA     -0.047300
     29 O1A        80.7225   55.2534   32.3231 o2         1 CLA     -0.610800
     30 O1D        78.7303   53.9037   34.4377 o2         1 CLA     -0.558200
     31 C2         83.0347   53.2158   35.2917 c8         1 CLA     -0.325100
     32 C2A        79.8830   57.1109   36.0736 a1         1 CLA      0.098600
     33 C2B        80.3613   60.9858   41.0134 cb         1 CLA      0.088500
     34 C2C        75.0280   58.7341   43.1752 cb         1 CLA      0.053700
     35 C2D        74.0544   55.9161   37.7996 cb         1 CLA      0.058900
     36 O2A        82.0903   55.2600   34.1984 o1         1 CLA     -0.437200
     37 O2D        77.8453   53.3212   36.5147 o1         1 CLA     -0.357600
     38 C3         84.2279   52.6271   35.1720 c5         1 CLA      0.031200
     39 C3A        80.8840   58.0294   36.8855 a1         1 CLA      0.166800
     40 C3B        79.4841   60.9717   42.1168 cb         1 CLA      0.035000
     41 C3C        74.0669   57.9261   42.5343 cb         1 CLA     -0.089900
     42 C3D        75.1434   55.7359   36.9326 cb         1 CLA     -0.035900
     43 C4         84.5427   51.0981   34.8856 a3         1 CLA     -0.053300
     44 C4A        79.9419   58.6504   37.9978 ac         1 CLA      0.001800
     45 C4B        78.3081   60.1961   41.7086 cn         1 CLA     -0.020900
     46 C4C        74.6096   57.7241   41.1322 cr         1 CLA     -0.044400
     47 C4D        76.2160   56.4724   37.3998 c6         1 CLA     -0.046000
     48 C5         85.4513   53.3736   35.5510 a2         1 CLA     -0.070400
     49 C6         85.3142   54.1585   36.8583 a2         1 CLA      0.043900
     50 C7         86.5068   55.1029   37.2342 a2         1 CLA     -0.150000
     51 C8         86.6028   55.4773   38.7292 a1         1 CLA      0.064200
     52 C9         85.4521   56.3130   39.2286 a3         1 CLA     -0.259300
     53 C10        87.9936   56.1973   38.8796 a2         1 CLA     -0.071900
     54 C11        88.4116   56.7091   40.3245 a2         1 CLA      0.014500
     55 C12        88.3072   55.5555   41.3572 a2         1 CLA     -0.112100
     56 C13        88.8288   56.0024   42.8141 a1         1 CLA      0.089200
     57 C14        88.8592   54.8020   43.7567 a3         1 CLA     -0.239100
     58 C15        88.0001   57.1129   43.4373 a2         1 CLA     -0.102200
     59 C16        86.5382   56.8400   43.8255 a2         1 CLA      0.023900
     60 C17        85.7573   58.1447   43.8850 a2         1 CLA     -0.105700
     61 C18        84.3734   58.0261   44.6608 a1         1 CLA      0.206800
     62 C19        84.6118   58.0052   46.2623 a3         1 CLA     -0.280100
     63 C20        83.4815   59.1755   44.3858 a3         1 CLA     -0.280100
     64 NC         75.7389   58.4546   40.9608 nx         1 CLA     -0.309200
     65 MG         77.1651   58.4400   39.3609 mg         1 CLA      0.895000
     66 HMD3       71.9757   55.9613   37.7874 dc         1 CLA      0.064300
     67 HMD2       72.6868   54.4484   37.2302 dc         1 CLA      0.064300
     68 HMD1       72.6452   54.7632   38.9955 dc         1 CLA      0.064300
     69 HMC3       75.7783   58.6209   45.0667 dc         1 CLA      0.052100
     70 HMC2       75.1703   60.2937   44.5866 dc         1 CLA      0.052100
     71 HMC1       74.0608   58.8426   45.0495 dc         1 CLA      0.052100
     72 HMB3       81.7079   61.9780   39.7758 dc         1 CLA      0.063600
     73 HMB2       81.8886   62.5118   41.4502 dc         1 CLA      0.063600
     74 HMB1       82.4550   60.8988   41.0547 dc         1 CLA      0.063600
     75 HMA3       82.5974   57.6133   38.3414 dc         1 CLA      0.058300
     76 HMA2       81.5343   56.2504   38.1273 dc         1 CLA      0.058300
     77 HMA1       82.6108   56.6344   36.7410 dc         1 CLA      0.058300
     78 HED3       79.6331   52.1823   36.1021 dc         1 CLA      0.079300
     79 HED2       78.8685   51.8720   37.5327 dc         1 CLA      0.079300
     80 HED1       77.9862   51.3603   36.0725 dc         1 CLA      0.079300
     81 HBC3       73.9555   55.5537   43.9970 dc         1 CLA      0.016300
     82 HBC2       72.2509   55.4697   44.1062 dc         1 CLA      0.016300
     83 HBC1       73.0493   55.2015   42.5005 dc         1 CLA      0.016300
     84 HBB2       80.7016   62.1218   45.1171 da         1 CLA      0.183000
     85 HBB1       81.7406   61.4892   43.6068 da         1 CLA      0.183000
     86 HBA2       80.9181   57.7492   32.7261 dc         1 CLA      0.029400
     87 HBA1       81.9274   57.6363   34.1161 dc         1 CLA      0.029400
     88 HAC2       72.7626   57.6918   44.1294 dc         1 CLA      0.029300
     89 HAC1       71.9862   57.3732   42.5844 dc         1 CLA      0.029300
     90 HAA2       79.0395   56.7523   34.0430 dc         1 CLA      0.028700
     91 HAA1       79.3169   58.4275   34.4161 dc         1 CLA      0.028700
     92 H203       83.9096   60.1028   44.6718 dc         1 CLA      0.065600
     93 H202       83.1966   59.0687   43.3556 dc         1 CLA      0.065600
     94 H201       82.5396   59.1233   44.9386 dc         1 CLA      0.065600
     95 H193       85.2485   58.8773   46.5495 dc         1 CLA      0.065600
     96 H192       83.6910   57.9782   46.8235 dc         1 CLA      0.065600
     97 H191       85.3156   57.2113   46.4773 dc         1 CLA      0.065600
     98 H172       86.3015   58.8839   44.4613 dc         1 CLA      0.027600
     99 H171       85.5632   58.5948   42.8621 dc         1 CLA      0.027600
    100 H162       86.0413   56.1414   43.1356 dc         1 CLA      0.002900
    101 H161       86.5503   56.2823   44.7779 dc         1 CLA      0.002900
    102 H152       88.4091   57.3250   44.4429 dc         1 CLA      0.029100
    103 H151       88.0755   58.0279   42.7893 dc         1 CLA      0.029100
    104 H143       87.8337   54.2826   43.7683 dc         1 CLA      0.063600
    105 H142       89.5384   54.1070   43.3371 dc         1 CLA      0.063600
    106 H141       89.1980   55.0034   44.7649 dc         1 CLA      0.063600
    107 H122       87.2743   55.1819   41.3958 dc         1 CLA      0.032500
    108 H121       89.0623   54.8505   41.0292 dc         1 CLA      0.032500
    109 H112       89.4754   57.0386   40.2444 dc         1 CLA      0.006600
    110 H111       87.9009   57.6290   40.5755 dc         1 CLA      0.006600
    111 H102       88.7464   55.4818   38.5438 dc         1 CLA      0.024100
    112 H101       88.1376   57.1046   38.3062 dc         1 CLA      0.024100
    113 HHD        73.0097   56.5550   40.2796 da         1 CLA      0.174300
    114 HHC        77.1126   60.2402   43.5178 da         1 CLA      0.136800
    115 HHB        81.4160   59.9951   38.6465 da         1 CLA      0.138300
    116 HBD        77.2528   55.9420   34.5713 dc         1 CLA      0.107700
    117 HAB        78.7041   61.7256   44.0649 da         1 CLA      0.155200
    118 H93        85.3592   57.3423   38.8336 dc         1 CLA      0.069500
    119 H92        84.4666   55.8450   39.0636 dc         1 CLA      0.069500
    120 H91        85.5435   56.2982   40.3256 dc         1 CLA      0.069500
    121 H8         86.6489   54.4862   39.1555 dc         1 CLA      0.029300
    122 H72        87.3319   54.5790   36.7773 dc         1 CLA      0.044400
    123 H71        86.3593   56.0290   36.6479 dc         1 CLA      0.044400
    124 H62        84.3580   54.7178   36.8016 dc         1 CLA      0.015600
    125 H61        85.2308   53.3780   37.6255 dc         1 CLA      0.015600
    126 H52        86.2780   52.6178   35.6294 dc         1 CLA      0.033200
    127 H51        85.7449   53.9604   34.7323 dc         1 CLA      0.033200
    128 H43        83.6674   50.4558   34.5706 dc         1 CLA      0.037000
    129 H42        85.3267   50.9342   34.1203 dc         1 CLA      0.037000
    130 H41        85.0341   50.7701   35.8275 dc         1 CLA      0.037000
    131 H3A        81.3158   58.8948   36.3671 dc         1 CLA      0.041100
    132 H2A        80.1955   56.0607   36.0850 dc         1 CLA      0.083100
    133 H2         82.7547   53.2177   36.4176 da         1 CLA      0.180900
    134 H18        83.8755   57.1012   44.4170 dc         1 CLA     -0.003900
    135 H13        89.8838   56.3102   42.7402 dc         1 CLA      0.019700
    136 H12        81.1343   53.4525   34.3094 dc         1 CLA      0.120400
    137 H11        82.5680   53.4204   33.2499 dc         1 CLA      0.120400
    138 C1         71.0088   61.0743   49.9266 Z1         2 LUT      0.509236
    139 C2         69.6522   60.5298   50.5009 Z2         2 LUT     -0.434695
    140 C3         68.6827   61.5470   51.1364 Z3         2 LUT      0.437453
    141 O3         69.0266   61.6331   52.5050 S1         2 LUT     -0.547129
    142 C4         68.7879   62.8622   50.3330 Z4         2 LUT     -0.468603
    143 C5         69.4119   62.7873   48.9202 Z5         2 LUT      0.279246
    144 C6         70.5258   62.0474   48.7947 Z6         2 LUT     -0.305473
    145 C7         70.8982   61.7191   47.4168 Z7         2 LUT      0.069402
    146 C8         71.7661   62.4031   46.6694 Z8         2 LUT     -0.191631
    147 C9         72.3397   62.0557   45.4267 Z9         2 LUT      0.196698
    148 C10        73.3098   62.8438   44.8369 Y1         2 LUT     -0.208611
    149 C11        73.9410   62.6787   43.5211 Y2         2 LUT      0.030784
    150 C12        75.0812   63.3941   43.1911 Y3         2 LUT     -0.220316
    151 C13        75.9797   63.2878   42.0553 Y4         2 LUT      0.215937
    152 C14        77.1003   64.0367   41.9540 Y5         2 LUT     -0.185793
    153 C15        78.1035   64.0669   41.0210 Y6         2 LUT     -0.057835
    154 C16        71.8417   59.9274   49.4394 Y7         2 LUT     -0.405615
    155 C17        71.7692   61.9428   50.9449 Y7         2 LUT     -0.405615
    156 C18        68.6281   63.6078   47.8788 Y9         2 LUT     -0.369639
    157 C19        71.7778   60.8482   44.6456 W1         2 LUT     -0.333362
    158 C20        75.5959   62.2879   40.9772 W2         2 LUT     -0.323439
    159 C21        89.5582   63.9754   34.9448 Z1         2 LUT      0.406104
    160 C22        90.0248   63.1816   33.6655 Z2         2 LUT     -0.404965
    161 C23        90.0909   63.8768   32.3461 Z3         2 LUT      0.391255
    162 O23        90.2222   62.9345   31.3324 S1         2 LUT     -0.528210
    163 C24        88.9484   64.9095   32.2449 W6         2 LUT     -0.258361
    164 C25        88.0514   65.2467   33.2009 Z5         2 LUT      0.133546
    165 C26        88.1432   64.5623   34.5620 W8         2 LUT     -0.147008
    166 C27        87.5479   65.4396   35.7159 Z7         2 LUT      0.023843
    167 C28        86.2393   65.3533   36.1706 Z8         2 LUT     -0.216987
    168 C29        85.6756   65.9758   37.3667 Z9         2 LUT      0.206524
    169 C30        84.4814   65.4453   37.7563 Y1         2 LUT     -0.215556
    170 C31        83.6283   65.7687   38.8399 Y2         2 LUT      0.025142
    171 C32        82.4443   65.2397   39.1319 Y3         2 LUT     -0.212209
    172 C33        81.6688   65.2853   40.3137 Y4         2 LUT      0.240937
    173 C34        80.3370   64.8228   40.2805 Y5         2 LUT     -0.218862
    174 C35        79.2818   64.7458   41.2548 Y6         2 LUT     -0.023547
    175 C36        90.7037   64.9922   35.1700 Y7         2 LUT     -0.393485
    176 C37        89.5199   63.0024   36.1059 Y7         2 LUT     -0.393485
    177 C38        86.7265   65.9951   33.0034 Y9         2 LUT     -0.387526
    178 C39        86.3729   67.0299   38.1337 W1         2 LUT     -0.322618
    179 C40        82.2268   66.1125   41.4009 W2         2 LUT     -0.358472
    180 H403       82.6598   67.0429   41.0148 R7         2 LUT      0.097720
    181 H402       81.3886   66.3988   42.0878 R7         2 LUT      0.097720
    182 H401       82.9658   65.4968   41.9642 R7         2 LUT      0.097720
    183 H393       86.6071   66.7575   39.1629 R4         2 LUT      0.082505
    184 H392       87.3078   67.4162   37.7177 R4         2 LUT      0.082505
    185 H391       85.7853   67.9360   38.1652 R4         2 LUT      0.082505
    186 H383       86.6919   66.8961   33.5250 R1         2 LUT      0.104030
    187 H382       86.5147   66.2659   31.9601 R1         2 LUT      0.104030
    188 H381       85.8569   65.4051   33.3225 R1         2 LUT      0.104030
    189 H373       90.3587   62.2653   36.1917 T4         2 LUT      0.089537
    190 H372       89.6367   63.4601   37.0785 T4         2 LUT      0.089537
    191 H371       88.5910   62.3908   36.1429 T4         2 LUT      0.089537
    192 H363       90.7522   65.6895   34.2556 T4         2 LUT      0.089537
    193 H362       90.6576   65.6544   36.0619 T4         2 LUT      0.089537
    194 H361       91.7121   64.5467   35.3334 T4         2 LUT      0.089537
    195 H222       91.0191   62.8037   33.8106 U2         2 LUT      0.127376
    196 H221       89.3521   62.3687   33.5097 U2         2 LUT      0.127376
    197 H203       74.9377   62.5587   40.1461 R7         2 LUT      0.087068
    198 H202       76.4488   61.8221   40.6040 R7         2 LUT      0.087068
    199 H201       75.0239   61.3912   41.2596 R7         2 LUT      0.087068
    200 H193       72.3863   60.5931   43.8128 R4         2 LUT      0.089716
    201 H192       71.7330   59.9595   45.2901 R4         2 LUT      0.089716
    202 H191       70.8373   61.0871   44.2764 R4         2 LUT      0.089716
    203 H183       67.5369   63.6472   48.1203 R1         2 LUT      0.094572
    204 H182       68.9782   64.6506   47.9344 R1         2 LUT      0.094572
    205 H181       68.7523   63.1220   46.9004 R1         2 LUT      0.094572
    206 H173       71.6553   61.5945   51.9991 T4         2 LUT      0.093752
    207 H172       72.8015   62.1139   50.7641 T4         2 LUT      0.093752
    208 H171       71.2499   62.9235   51.0480 T4         2 LUT      0.093752
    209 H163       72.8171   60.2561   49.0257 T4         2 LUT      0.093752
    210 H162       71.9615   59.3099   50.2761 T4         2 LUT      0.093752
    211 H161       71.2507   59.3060   48.7099 T4         2 LUT      0.093752
    212 HO3        68.5837   62.2774   52.9852 Q1         2 LUT      0.300121
    213 H8         72.1777   63.2696   47.1175 U7         2 LUT      0.080784
    214 H7         70.4704   60.8286   46.9812 U6         2 LUT      0.042190
    215 H42        67.7540   63.2428   50.2972 U5         2 LUT      0.145166
    216 H41        69.2563   63.7296   50.8683 U5         2 LUT      0.145166
    217 H35        79.4511   65.1330   42.2687 T3         2 LUT      0.077919
    218 H34        80.1632   64.3402   39.3218 T2         2 LUT      0.073626
    219 H32        82.0366   64.6234   38.3249 T1         2 LUT      0.092510
    220 H31        84.0684   66.4573   39.5690 U9         2 LUT      0.070048
    221 H30        84.0897   64.6224   37.1934 U8         2 LUT      0.085442
    222 H3         67.6669   61.0774   51.2108 U3         2 LUT     -0.031596
    223 H28        85.5678   64.7015   35.6188 U7         2 LUT      0.084728
    224 H27        88.2155   66.0995   36.2454 U6         2 LUT      0.087291
    225 H26        87.4946   63.6343   34.4676 Q6         2 LUT      0.075325
    226 H24        88.6993   65.3228   31.2393 Q5         2 LUT      0.094482
    227 H23        91.0256   64.4274   32.3266 U3         2 LUT     -0.024869
    228 H22        69.0905   60.2001   49.5930 U2         2 LUT      0.127376
    229 H21        69.8090   59.7089   51.1677 U2         2 LUT      0.127376
    230 H15        78.0035   63.4914   40.0898 T3         2 LUT      0.093200
    231 H14        77.2141   64.9052   42.7055 T2         2 LUT      0.068865
    232 H12        75.3945   64.0944   43.9569 T1         2 LUT      0.095507
    233 H11        73.6250   61.9138   42.8025 U9         2 LUT      0.068930
    234 H10        73.6635   63.6997   45.4185 U8         2 LUT      0.083911
    235 H1         89.8294   63.2587   30.5424 Q1         2 LUT      0.297311
@<TRIPOS>BOND
    1     6     1 1
    2     7     2 1
    3     8     3 1
    4     9     4 1
    5    11     4 1
    6    12     6 1
    7    13     9 1
    8    16     9 1
    9    25     5 1
   10    25    16 1
   11    26    10 1
   12    26    17 1
   13    27    18 1
   14    28    14 1
   15    28    19 1
   16    29    12 1
   17    30    13 1
   18    31    24 1
   19    32     1 1
   20    32    25 1
   21    33    21 1
   22    33    26 1
   23    34    22 1
   24    34    27 1
   25    35    23 1
   26    35    28 1
   27    36    12 1
   28    36    24 1
   29    37    13 1
   30    37    15 1
   31    38    31 1
   32    39    20 1
   33    39    32 1
   34    40     2 1
   35    40    33 1
   36    41     3 1
   37    41    34 1
   38    42     4 1
   39    42    35 1
   40    43    38 1
   41    44     5 1
   42    44    17 1
   43    44    39 1
   44    45    10 1
   45    45    18 1
   46    45    40 1
   47    46    19 1
   48    46    41 1
   49    47    14 1
   50    47    16 1
   51    47    42 1
   52    48    38 1
   53    49    48 1
   54    50    49 1
   55    51    50 1
   56    52    51 1
   57    53    51 1
   58    54    53 1
   59    55    54 1
   60    56    55 1
   61    57    56 1
   62    58    56 1
   63    59    58 1
   64    60    59 1
   65    61    60 1
   66    62    61 1
   67    63    61 1
   68    64    27 1
   69    64    46 1
   70    65     5 1
   71    65    10 1
   72    65    64 1
   73    65    14 1
   74    66    23 1
   75    67    23 1
   76    68    23 1
   77    69    22 1
   78    70    22 1
   79    71    22 1
   80    72    21 1
   81    73    21 1
   82    74    21 1
   83    75    20 1
   84    76    20 1
   85    77    20 1
   86    78    15 1
   87    79    15 1
   88    80    15 1
   89    81     8 1
   90    82     8 1
   91    83     8 1
   92    84     7 1
   93    85     7 1
   94    86     6 1
   95    87     6 1
   96    88     3 1
   97    89     3 1
   98    90     1 1
   99    91     1 1
  100    92    63 1
  101    93    63 1
  102    94    63 1
  103    95    62 1
  104    96    62 1
  105    97    62 1
  106    98    60 1
  107    99    60 1
  108   100    59 1
  109   101    59 1
  110   102    58 1
  111   103    58 1
  112   104    57 1
  113   105    57 1
  114   106    57 1
  115   107    55 1
  116   108    55 1
  117   109    54 1
  118   110    54 1
  119   111    53 1
  120   112    53 1
  121   113    19 1
  122   114    18 1
  123   115    17 1
  124   116     9 1
  125   117     2 1
  126   118    52 1
  127   119    52 1
  128   120    52 1
  129   121    51 1
  130   122    50 1
  131   123    50 1
  132   124    49 1
  133   125    49 1
  134   126    48 1
  135   127    48 1
  136   128    43 1
  137   129    43 1
  138   130    43 1
  139   131    39 1
  140   132    32 1
  141   133    31 1
  142   134    61 1
  143   135    56 1
  144   136    24 1
  145   137    24 1
  146   139   138 1
  147   140   139 1
  148   141   140 1
  149   142   140 1
  150   143   142 1
  151   144   138 1
  152   144   143 1
  153   145   144 1
  154   146   145 1
  155   147   146 1
  156   148   147 1
  157   149   148 1
  158   150   149 1
  159   151   150 1
  160   152   151 1
  161   153   152 1
  162   154   138 1
  163   155   138 1
  164   156   143 1
  165   157   147 1
  166   158   151 1
  167   160   159 1
  168   161   160 1
  169   162   161 1
  170   163   161 1
  171   164   163 1
  172   165   159 1
  173   165   164 1
  174   166   165 1
  175   167   166 1
  176   168   167 1
  177   169   168 1
  178   170   169 1
  179   171   170 1
  180   172   171 1
  181   173   172 1
  182   174   153 1
  183   174   173 1
  184   175   159 1
  185   176   159 1
  186   177   164 1
  187   178   168 1
  188   179   172 1
  189   180   179 1
  190   181   179 1
  191   182   179 1
  192   183   178 1
  193   184   178 1
  194   185   178 1
  195   186   177 1
  196   187   177 1
  197   188   177 1
  198   189   176 1
  199   190   176 1
  200   191   176 1
  201   192   175 1
  202   193   175 1
  203   194   175 1
  204   195   160 1
  205   196   160 1
  206   197   158 1
  207   198   158 1
  208   199   158 1
  209   200   157 1
  210   201   157 1
  211   202   157 1
  212   203   156 1
  213   204   156 1
  214   205   156 1
  215   206   155 1
  216   207   155 1
  217   208   155 1
  218   209   154 1
  219   210   154 1
  220   211   154 1
  221   212   141 1
  222   213   146 1
  223   214   145 1
  224   215   142 1
  225   216   142 1
  226   217   174 1
  227   218   173 1
  228   219   171 1
  229   220   170 1
  230   221   169 1
  231   222   140 1
  232   223   167 1
  233   224   166 1
  234   225   165 1
  235   226   163 1
  236   227   161 1
  237   228   139 1
  238   229   139 1
  239   230   153 1
  240   231   152 1
  241   232   150 1
  242   233   149 1
  243   234   148 1
  244   235   162 1
  245   65    153 1
  246   65    174 1
@<TRIPOS>SUBSTRUCTURE
      1 CLA               1 ****               0 ****  **** 
      2 LUT             138 ****               0 ****  **** 
