@<TRIPOS>MOLECULE
Cpptraj generated mol2 file.
  235   246     2     0     0
SMALL
USER_CHARGES


@<TRIPOS>ATOM
      1 CAA        79.0641   59.0883   34.2019 a2         1 CLA     -0.055900
      2 CAB        79.2942   62.7150   43.0737 c8         1 CLA     -0.148500
      3 CAC        72.4314   58.3355   42.7851 a2         1 CLA     -0.012600
      4 CAD        75.0380   56.1708   35.3687 ck         1 CLA      0.398800
      5 NA         78.2345   59.0950   37.5936 ns         1 CLA     -0.225500
      6 CBA        80.1851   59.1010   33.1311 a2         1 CLA     -0.135000
      7 CBB        80.5180   62.7538   43.7091 c0         1 CLA     -0.395200
      8 CBC        72.6716   56.8802   43.3237 a3         1 CLA     -0.037700
      9 CBD        76.5786   56.6382   35.0051 a1         1 CLA     -0.053900
     10 NB         78.1612   60.4841   40.2388 nm         1 CLA     -0.295700
     11 OBD        74.3722   55.4007   34.6859 o2         1 CLA     -0.494600
     12 CGA        80.8710   57.7988   32.6738 c4         1 CLA      0.827000
     13 CGD        77.4272   55.4358   34.6558 c4         1 CLA      0.655300
     14 ND         75.5250   58.1129   38.2920 nm         1 CLA     -0.291600
     15 CED        77.8826   53.1643   35.1547 a3         1 CLA      0.005400
     16 CHA        76.9379   57.5885   36.1494 cs         1 CLA     -0.123800
     17 CHB        80.0480   60.4399   38.5453 aa         1 CLA     -0.291900
     18 CHC        76.8855   60.9106   42.2220 aa         1 CLA     -0.090400
     19 CHD        73.5701   58.0982   39.8151 aa         1 CLA     -0.052000
     20 CMA        81.6324   58.4424   36.9499 a3         1 CLA     -0.230700
     21 CMB        81.4156   62.3402   40.6249 a3         1 CLA     -0.180800
     22 CMC        74.5337   60.1274   44.3220 a3         1 CLA     -0.134000
     23 CMD        72.4536   56.1129   37.5992 a3         1 CLA     -0.141100
     24 C1         82.0514   55.8279   33.3644 a2         1 CLA      0.023000
     25 C1A        78.1092   58.2734   36.4368 ac         1 CLA     -0.015100
     26 C1B        79.4073   60.8419   39.7911 cr         1 CLA      0.054700
     27 C1C        75.7514   60.0579   41.9645 cn         1 CLA     -0.005600
     28 C1D        74.2271   57.7651   38.6071 ap         1 CLA     -0.047300
     29 O1A        80.8709   57.3790   31.5366 o2         1 CLA     -0.610800
     30 O1D        78.3473   55.4176   33.8054 o2         1 CLA     -0.558200
     31 C2         82.6999   55.3972   34.6196 c8         1 CLA     -0.325100
     32 C2A        79.3263   58.3200   35.5196 a1         1 CLA      0.098600
     33 C2B        80.0570   61.7546   40.7505 cb         1 CLA      0.088500
     34 C2C        74.5839   59.8118   42.8794 cb         1 CLA      0.053700
     35 C2D        73.7040   56.9946   37.5071 cb         1 CLA      0.058900
     36 O2A        81.5122   57.1294   33.7121 o1         1 CLA     -0.437200
     37 O2D        77.1551   54.3664   35.4791 o1         1 CLA     -0.357600
     38 C3         83.7913   54.5949   34.6497 c5         1 CLA      0.031200
     39 C3A        80.3461   59.1260   36.4353 a1         1 CLA      0.166800
     40 C3B        79.1579   61.9496   41.8033 cb         1 CLA      0.035000
     41 C3C        73.6674   58.9618   42.1796 cb         1 CLA     -0.089900
     42 C3D        74.7012   56.8387   36.5812 cb         1 CLA     -0.035900
     43 C4         83.9042   53.0437   34.7393 a3         1 CLA     -0.053300
     44 C4A        79.4840   59.6062   37.6090 ac         1 CLA      0.001800
     45 C4B        78.0407   61.1212   41.4612 cn         1 CLA     -0.020900
     46 C4C        74.1948   58.8035   40.8002 cr         1 CLA     -0.044400
     47 C4D        75.8146   57.5689   37.0754 c6         1 CLA     -0.046000
     48 C5         85.2007   55.2202   34.6534 a2         1 CLA     -0.070400
     49 C6         85.5358   56.4761   35.5358 a2         1 CLA      0.043900
     50 C7         85.7822   55.8770   36.9463 a2         1 CLA     -0.150000
     51 C8         85.9472   56.9304   38.0613 a1         1 CLA      0.064200
     52 C9         87.1045   57.8655   37.7596 a3         1 CLA     -0.259300
     53 C10        85.9492   56.2258   39.4399 a2         1 CLA     -0.071900
     54 C11        86.2860   57.2170   40.6177 a2         1 CLA      0.014500
     55 C12        86.0820   56.5350   41.9871 a2         1 CLA     -0.112100
     56 C13        86.3595   57.5630   43.1842 a1         1 CLA      0.089200
     57 C14        87.6764   58.4445   43.0158 a3         1 CLA     -0.239100
     58 C15        86.2264   56.9526   44.5588 a2         1 CLA     -0.102200
     59 C16        85.8295   58.0232   45.5759 a2         1 CLA      0.023900
     60 C17        85.6148   57.6193   47.0769 a2         1 CLA     -0.105700
     61 C18        85.5035   58.7285   48.1463 a1         1 CLA      0.206800
     62 C19        84.3399   59.6761   47.7371 a3         1 CLA     -0.280100
     63 C20        85.2022   58.1560   49.5140 a3         1 CLA     -0.280100
     64 NC         75.5229   59.4008   40.7501 nx         1 CLA     -0.309200
     65 MG         76.7993   59.4000   39.0993 mg         1 CLA      0.895000
     66 HMD3       72.2858   55.9578   38.6865 dc         1 CLA      0.064300
     67 HMD2       71.6056   56.6351   37.1826 dc         1 CLA      0.064300
     68 HMD1       72.6445   55.1517   37.0735 dc         1 CLA      0.064300
     69 HMC3       75.5709   60.2995   44.6539 dc         1 CLA      0.052100
     70 HMC2       73.9695   61.0481   44.4930 dc         1 CLA      0.052100
     71 HMC1       74.0702   59.2968   44.8274 dc         1 CLA      0.052100
     72 HMB3       82.1927   61.6973   41.0535 dc         1 CLA      0.063600
     73 HMB2       81.6705   62.5457   39.5164 dc         1 CLA      0.063600
     74 HMB1       81.4795   63.3562   41.0567 dc         1 CLA      0.063600
     75 HMA3       81.4768   57.3472   37.0346 dc         1 CLA      0.058300
     76 HMA2       82.3490   58.4887   36.2504 dc         1 CLA      0.058300
     77 HMA1       82.0057   58.6866   37.9182 dc         1 CLA      0.058300
     78 HED3       77.7526   52.9063   34.1115 dc         1 CLA      0.079300
     79 HED2       78.9275   53.3133   35.3353 dc         1 CLA      0.079300
     80 HED1       77.5306   52.2644   35.6298 dc         1 CLA      0.079300
     81 HBC3       71.7903   56.4564   43.7753 dc         1 CLA      0.016300
     82 HBC2       72.9687   56.3279   42.4736 dc         1 CLA      0.016300
     83 HBC1       73.5128   56.8525   44.0157 dc         1 CLA      0.016300
     84 HBB2       80.6276   63.4188   44.6366 da         1 CLA      0.183000
     85 HBB1       81.3975   62.3495   43.1926 da         1 CLA      0.183000
     86 HBA2       79.9573   59.6689   32.1918 dc         1 CLA      0.029400
     87 HBA1       80.9827   59.6372   33.6112 dc         1 CLA      0.029400
     88 HAC2       72.0348   58.9915   43.5389 dc         1 CLA      0.029300
     89 HAC1       71.6186   58.4093   42.1173 dc         1 CLA      0.029300
     90 HAA2       78.2452   58.6375   33.6143 dc         1 CLA      0.028700
     91 HAA1       78.7653   60.1435   34.4046 dc         1 CLA      0.028700
     92 H203       84.2415   57.6661   49.5630 dc         1 CLA      0.065600
     93 H202       85.9991   57.3982   49.7621 dc         1 CLA      0.065600
     94 H201       85.3526   58.9325   50.2542 dc         1 CLA      0.065600
     95 H193       83.5196   59.1469   47.3155 dc         1 CLA      0.065600
     96 H192       84.0680   60.2659   48.6187 dc         1 CLA      0.065600
     97 H191       84.7727   60.3878   47.0577 dc         1 CLA      0.065600
     98 H172       84.6448   57.0446   47.1060 dc         1 CLA      0.027600
     99 H171       86.4416   56.9073   47.3317 dc         1 CLA      0.027600
    100 H162       86.6535   58.7868   45.6047 dc         1 CLA      0.002900
    101 H161       85.0086   58.6829   45.2715 dc         1 CLA      0.002900
    102 H152       85.4272   56.2077   44.4996 dc         1 CLA      0.029100
    103 H151       87.1377   56.3930   44.8498 dc         1 CLA      0.029100
    104 H143       87.5219   59.0515   42.1038 dc         1 CLA      0.063600
    105 H142       87.7886   59.0191   43.8554 dc         1 CLA      0.063600
    106 H141       88.5338   57.8561   42.9324 dc         1 CLA      0.063600
    107 H122       85.0500   56.1199   42.0475 dc         1 CLA      0.032500
    108 H121       86.6743   55.6511   42.1442 dc         1 CLA      0.032500
    109 H112       87.3405   57.4450   40.6159 dc         1 CLA      0.006600
    110 H111       85.6748   58.1381   40.5317 dc         1 CLA      0.006600
    111 H102       84.9535   55.7901   39.5957 dc         1 CLA      0.024100
    112 H101       86.6383   55.3437   39.3436 dc         1 CLA      0.024100
    113 HHD        72.5004   57.7921   39.9178 da         1 CLA      0.174300
    114 HHC        76.9647   61.4207   43.1534 da         1 CLA      0.136800
    115 HHB        81.0109   60.9559   38.3384 da         1 CLA      0.138300
    116 HBD        76.4491   57.2009   34.1175 dc         1 CLA      0.107700
    117 HAB        78.4208   63.1989   43.5247 da         1 CLA      0.155200
    118 H93        87.3004   58.5577   38.5214 dc         1 CLA      0.069500
    119 H92        88.0004   57.2616   37.6039 dc         1 CLA      0.069500
    120 H91        86.9249   58.5021   36.9054 dc         1 CLA      0.069500
    121 H8         85.1301   57.6750   38.1053 dc         1 CLA      0.029300
    122 H72        84.9841   55.1729   37.1715 dc         1 CLA      0.044400
    123 H71        86.7544   55.2528   36.8783 dc         1 CLA      0.044400
    124 H62        86.4708   57.0568   35.2706 dc         1 CLA      0.015600
    125 H61        84.6151   57.1700   35.6016 dc         1 CLA      0.015600
    126 H52        85.9698   54.4831   34.8551 dc         1 CLA      0.033200
    127 H51        85.2699   55.4540   33.6122 dc         1 CLA      0.033200
    128 H43        84.3503   52.6636   35.6101 dc         1 CLA      0.037000
    129 H42        82.9022   52.6919   34.7337 dc         1 CLA      0.037000
    130 H41        84.4105   52.5905   33.8608 dc         1 CLA      0.037000
    131 H3A        80.7407   60.0092   35.9795 dc         1 CLA      0.041100
    132 H2A        79.6767   57.2765   35.3762 dc         1 CLA      0.083100
    133 H2         82.3189   55.7234   35.5940 da         1 CLA      0.180900
    134 H18        86.4070   59.2499   48.2423 dc         1 CLA     -0.003900
    135 H13        85.4919   58.1918   43.1204 dc         1 CLA      0.019700
    136 H12        81.2176   55.2121   33.2346 dc         1 CLA      0.120400
    137 H11        82.7745   55.9227   32.5484 dc         1 CLA      0.120400
    138 C1         69.0566   61.9038   50.0559 Z1         2 LUT      0.509236
    139 C2         67.5969   61.6106   50.6891 Z2         2 LUT     -0.434695
    140 C3         66.7295   62.9176   50.8080 Z3         2 LUT      0.437453
    141 O3         66.7020   63.3876   52.1722 S1         2 LUT     -0.547129
    142 C4         67.2363   64.1150   49.9757 Z4         2 LUT     -0.468603
    143 C5         67.9682   63.7560   48.7180 Z5         2 LUT      0.279246
    144 C6         68.9132   62.7806   48.7380 Z6         2 LUT     -0.305473
    145 C7         69.4543   62.2068   47.4348 Z7         2 LUT      0.069402
    146 C8         70.2284   62.9785   46.6110 Z8         2 LUT     -0.191631
    147 C9         70.7182   62.6129   45.2755 Z9         2 LUT      0.196698
    148 C10        71.6483   63.3994   44.5770 Y1         2 LUT     -0.208611
    149 C11        72.3269   63.1383   43.3395 Y2         2 LUT      0.030784
    150 C12        73.3899   63.8397   42.9679 Y3         2 LUT     -0.220316
    151 C13        74.2989   63.6345   41.9362 Y4         2 LUT      0.215937
    152 C14        75.4904   64.3921   41.9933 Y5         2 LUT     -0.185793
    153 C15        76.6643   64.3192   41.2061 Y6         2 LUT     -0.057835
    154 C16        69.6610   60.4991   49.8021 Y7         2 LUT     -0.405615
    155 C17        69.7913   62.5795   51.2495 Y7         2 LUT     -0.405615
    156 C18        67.3257   64.5224   47.5521 Y9         2 LUT     -0.369639
    157 C19        70.1849   61.2510   44.7886 W1         2 LUT     -0.333362
    158 C20        73.9625   62.7421   40.7303 W2         2 LUT     -0.323439
    159 C21        87.8430   65.9269   34.7247 Z1         2 LUT      0.406104
    160 C22        88.6973   65.4129   33.5294 Z2         2 LUT     -0.404965
    161 C23        88.4767   66.1218   32.1587 Z3         2 LUT      0.391255
    162 O23        88.8330   65.0693   31.1920 S1         2 LUT     -0.528210
    163 C24        87.1431   66.8430   32.0684 W6         2 LUT     -0.258361
    164 C25        86.1467   66.8836   33.0214 Z5         2 LUT      0.133546
    165 C26        86.3320   66.2874   34.3948 W8         2 LUT     -0.147008
    166 C27        85.4676   66.8758   35.5379 Z7         2 LUT      0.023843
    167 C28        84.4889   66.3559   36.3348 Z8         2 LUT     -0.216987
    168 C29        83.9354   67.0101   37.4828 Z9         2 LUT      0.206524
    169 C30        82.9025   66.3106   37.9770 Y1         2 LUT     -0.215556
    170 C31        82.1372   66.4282   39.1815 Y2         2 LUT      0.025142
    171 C32        81.0732   65.5901   39.4856 Y3         2 LUT     -0.212209
    172 C33        80.0913   65.8500   40.5667 Y4         2 LUT      0.240937
    173 C34        78.8853   65.0875   40.5434 Y5         2 LUT     -0.218862
    174 C35        77.7878   65.0537   41.3843 Y6         2 LUT     -0.023547
    175 C36        88.6710   67.1017   35.2223 Y7         2 LUT     -0.393485
    176 C37        87.9809   64.8364   35.8730 Y7         2 LUT     -0.393485
    177 C38        84.9608   67.6300   32.5764 Y9         2 LUT     -0.387526
    178 C39        84.4488   68.3099   38.0852 W1         2 LUT     -0.322618
    179 C40        80.5052   66.5525   41.8037 W2         2 LUT     -0.358472
    180 H403       81.3944   66.0533   42.1034 R7         2 LUT      0.097720
    181 H402       80.8845   67.5384   41.5053 R7         2 LUT      0.097720
    182 H401       79.8620   66.6819   42.6786 R7         2 LUT      0.097720
    183 H393       85.2113   68.2216   38.8065 R4         2 LUT      0.082505
    184 H392       84.9473   68.9745   37.3329 R4         2 LUT      0.082505
    185 H391       83.6472   68.9495   38.5520 R4         2 LUT      0.082505
    186 H383       85.0742   67.9270   31.5798 R1         2 LUT      0.104030
    187 H382       84.2075   66.8417   32.4270 R1         2 LUT      0.104030
    188 H381       84.6599   68.5303   33.1525 R1         2 LUT      0.104030
    189 H373       87.2733   63.9695   35.6128 T4         2 LUT      0.089537
    190 H372       89.0145   64.4505   35.9694 T4         2 LUT      0.089537
    191 H371       87.6606   65.1908   36.8299 T4         2 LUT      0.089537
    192 H363       88.1963   67.6795   36.0421 T4         2 LUT      0.089537
    193 H362       89.6685   66.8571   35.5630 T4         2 LUT      0.089537
    194 H361       88.8931   67.8638   34.4518 T4         2 LUT      0.089537
    195 H222       89.7160   65.3726   33.7319 U2         2 LUT      0.127376
    196 H221       88.1915   64.4604   33.4126 U2         2 LUT      0.127376
    197 H203       73.2401   63.2913   40.1241 R7         2 LUT      0.087068
    198 H202       74.8344   62.5849   40.1231 R7         2 LUT      0.087068
    199 H201       73.5454   61.7675   41.0434 R7         2 LUT      0.087068
    200 H193       69.1498   61.0385   44.8140 R4         2 LUT      0.089716
    201 H192       70.3914   60.9896   43.7881 R4         2 LUT      0.089716
    202 H191       70.6945   60.4196   45.3165 R4         2 LUT      0.089716
    203 H183       67.7838   65.4890   47.3069 R1         2 LUT      0.094572
    204 H182       67.4668   63.9821   46.6779 R1         2 LUT      0.094572
    205 H181       66.2574   64.6421   47.7237 R1         2 LUT      0.094572
    206 H173       69.5281   61.9367   52.0475 T4         2 LUT      0.093752
    207 H172       70.9300   62.5779   51.1335 T4         2 LUT      0.093752
    208 H171       69.4311   63.5909   51.5108 T4         2 LUT      0.093752
    209 H163       69.3172   60.1098   48.8678 T4         2 LUT      0.093752
    210 H162       70.7686   60.5270   49.6907 T4         2 LUT      0.093752
    211 H161       69.5070   59.8276   50.6129 T4         2 LUT      0.093752
    212 HO3        66.6086   62.7014   52.8421 Q1         2 LUT      0.300121
    213 H8         70.4654   64.0136   46.9624 U7         2 LUT      0.080784
    214 H7         69.2764   61.1974   47.0770 U6         2 LUT      0.042190
    215 H42        66.3487   64.7551   49.8745 U5         2 LUT      0.145166
    216 H41        67.8059   64.8367   50.5599 U5         2 LUT      0.145166
    217 H35        77.9209   65.7418   42.2689 T3         2 LUT      0.077919
    218 H34        78.7763   64.2909   39.7045 T2         2 LUT      0.073626
    219 H32        80.8862   64.8179   38.7762 T1         2 LUT      0.092510
    220 H31        82.3016   67.2396   39.8753 U9         2 LUT      0.070048
    221 H30        82.6122   65.3725   37.5308 U8         2 LUT      0.085442
    222 H3         65.7098   62.6534   50.4029 U3         2 LUT     -0.031596
    223 H28        84.1102   65.3383   36.0211 U7         2 LUT      0.084728
    224 H27        85.7473   67.8700   35.7544 U6         2 LUT      0.087291
    225 H26        85.8161   65.3499   34.3345 Q6         2 LUT      0.075325
    226 H24        86.8752   67.3299   31.1018 Q5         2 LUT      0.094482
    227 H23        89.1421   66.9528   32.3040 U3         2 LUT     -0.024869
    228 H22        67.1410   60.9463   49.9458 U2         2 LUT      0.127376
    229 H21        67.7273   61.1467   51.6605 U2         2 LUT      0.127376
    230 H15        76.6796   63.5956   40.3663 T3         2 LUT      0.093200
    231 H14        75.5560   65.0936   42.8007 T2         2 LUT      0.068865
    232 H12        73.6801   64.6538   43.5758 T1         2 LUT      0.095507
    233 H11        72.0993   62.2604   42.7913 U9         2 LUT      0.068930
    234 H10        71.9465   64.3691   44.9469 U8         2 LUT      0.083911
    235 H1         88.9857   65.5090   30.3380 Q1         2 LUT      0.297311
@<TRIPOS>BOND
    1     6     1 1
    2     7     2 1
    3     8     3 1
    4     9     4 1
    5    11     4 1
    6    12     6 1
    7    13     9 1
    8    16     9 1
    9    25     5 1
   10    25    16 1
   11    26    10 1
   12    26    17 1
   13    27    18 1
   14    28    14 1
   15    28    19 1
   16    29    12 1
   17    30    13 1
   18    31    24 1
   19    32     1 1
   20    32    25 1
   21    33    21 1
   22    33    26 1
   23    34    22 1
   24    34    27 1
   25    35    23 1
   26    35    28 1
   27    36    12 1
   28    36    24 1
   29    37    13 1
   30    37    15 1
   31    38    31 1
   32    39    20 1
   33    39    32 1
   34    40     2 1
   35    40    33 1
   36    41     3 1
   37    41    34 1
   38    42     4 1
   39    42    35 1
   40    43    38 1
   41    44     5 1
   42    44    17 1
   43    44    39 1
   44    45    10 1
   45    45    18 1
   46    45    40 1
   47    46    19 1
   48    46    41 1
   49    47    14 1
   50    47    16 1
   51    47    42 1
   52    48    38 1
   53    49    48 1
   54    50    49 1
   55    51    50 1
   56    52    51 1
   57    53    51 1
   58    54    53 1
   59    55    54 1
   60    56    55 1
   61    57    56 1
   62    58    56 1
   63    59    58 1
   64    60    59 1
   65    61    60 1
   66    62    61 1
   67    63    61 1
   68    64    27 1
   69    64    46 1
   70    65     5 1
   71    65    10 1
   72    65    64 1
   73    65    14 1
   74    66    23 1
   75    67    23 1
   76    68    23 1
   77    69    22 1
   78    70    22 1
   79    71    22 1
   80    72    21 1
   81    73    21 1
   82    74    21 1
   83    75    20 1
   84    76    20 1
   85    77    20 1
   86    78    15 1
   87    79    15 1
   88    80    15 1
   89    81     8 1
   90    82     8 1
   91    83     8 1
   92    84     7 1
   93    85     7 1
   94    86     6 1
   95    87     6 1
   96    88     3 1
   97    89     3 1
   98    90     1 1
   99    91     1 1
  100    92    63 1
  101    93    63 1
  102    94    63 1
  103    95    62 1
  104    96    62 1
  105    97    62 1
  106    98    60 1
  107    99    60 1
  108   100    59 1
  109   101    59 1
  110   102    58 1
  111   103    58 1
  112   104    57 1
  113   105    57 1
  114   106    57 1
  115   107    55 1
  116   108    55 1
  117   109    54 1
  118   110    54 1
  119   111    53 1
  120   112    53 1
  121   113    19 1
  122   114    18 1
  123   115    17 1
  124   116     9 1
  125   117     2 1
  126   118    52 1
  127   119    52 1
  128   120    52 1
  129   121    51 1
  130   122    50 1
  131   123    50 1
  132   124    49 1
  133   125    49 1
  134   126    48 1
  135   127    48 1
  136   128    43 1
  137   129    43 1
  138   130    43 1
  139   131    39 1
  140   132    32 1
  141   133    31 1
  142   134    61 1
  143   135    56 1
  144   136    24 1
  145   137    24 1
  146   139   138 1
  147   140   139 1
  148   141   140 1
  149   142   140 1
  150   143   142 1
  151   144   138 1
  152   144   143 1
  153   145   144 1
  154   146   145 1
  155   147   146 1
  156   148   147 1
  157   149   148 1
  158   150   149 1
  159   151   150 1
  160   152   151 1
  161   153   152 1
  162   154   138 1
  163   155   138 1
  164   156   143 1
  165   157   147 1
  166   158   151 1
  167   160   159 1
  168   161   160 1
  169   162   161 1
  170   163   161 1
  171   164   163 1
  172   165   159 1
  173   165   164 1
  174   166   165 1
  175   167   166 1
  176   168   167 1
  177   169   168 1
  178   170   169 1
  179   171   170 1
  180   172   171 1
  181   173   172 1
  182   174   153 1
  183   174   173 1
  184   175   159 1
  185   176   159 1
  186   177   164 1
  187   178   168 1
  188   179   172 1
  189   180   179 1
  190   181   179 1
  191   182   179 1
  192   183   178 1
  193   184   178 1
  194   185   178 1
  195   186   177 1
  196   187   177 1
  197   188   177 1
  198   189   176 1
  199   190   176 1
  200   191   176 1
  201   192   175 1
  202   193   175 1
  203   194   175 1
  204   195   160 1
  205   196   160 1
  206   197   158 1
  207   198   158 1
  208   199   158 1
  209   200   157 1
  210   201   157 1
  211   202   157 1
  212   203   156 1
  213   204   156 1
  214   205   156 1
  215   206   155 1
  216   207   155 1
  217   208   155 1
  218   209   154 1
  219   210   154 1
  220   211   154 1
  221   212   141 1
  222   213   146 1
  223   214   145 1
  224   215   142 1
  225   216   142 1
  226   217   174 1
  227   218   173 1
  228   219   171 1
  229   220   170 1
  230   221   169 1
  231   222   140 1
  232   223   167 1
  233   224   166 1
  234   225   165 1
  235   226   163 1
  236   227   161 1
  237   228   139 1
  238   229   139 1
  239   230   153 1
  240   231   152 1
  241   232   150 1
  242   233   149 1
  243   234   148 1
  244   235   162 1
  245   65    153 1
  246   65    174 1
@<TRIPOS>SUBSTRUCTURE
      1 CLA               1 ****               0 ****  **** 
      2 LUT             138 ****               0 ****  **** 
