@<TRIPOS>MOLECULE
Cpptraj generated mol2 file.
  235   246     2     0     0
SMALL
USER_CHARGES


@<TRIPOS>ATOM
      1 CAA        79.6466   58.4494   34.9201 a2         1 CLA     -0.055900
      2 CAB        79.4630   61.8049   44.1515 c8         1 CLA     -0.148500
      3 CAC        72.5568   57.6779   43.1538 a2         1 CLA     -0.012600
      4 CAD        75.7909   55.4130   36.1839 ck         1 CLA      0.398800
      5 NA         78.5435   58.8953   38.1856 ns         1 CLA     -0.225500
      6 CBA        80.7960   58.2925   33.9386 a2         1 CLA     -0.135000
      7 CBB        80.2696   62.8323   44.4374 c0         1 CLA     -0.395200
      8 CBC        72.8408   56.4232   43.9406 a3         1 CLA     -0.037700
      9 CBD        77.2083   55.9992   35.9450 a1         1 CLA     -0.053900
     10 NB         78.2895   60.2341   40.9192 nm         1 CLA     -0.295700
     11 OBD        75.3345   54.5167   35.4948 o2         1 CLA     -0.494600
     12 CGA        81.3749   56.8893   33.7851 c4         1 CLA      0.827000
     13 CGD        78.2199   54.8625   36.1356 c4         1 CLA      0.655300
     14 ND         75.6703   57.8485   38.7029 nm         1 CLA     -0.291600
     15 CED        78.4540   52.5414   36.9746 a3         1 CLA      0.005400
     16 CHA        77.3968   57.1435   36.8913 cs         1 CLA     -0.123800
     17 CHB        80.2340   60.1808   39.4208 aa         1 CLA     -0.291900
     18 CHC        76.8602   60.3154   42.9500 aa         1 CLA     -0.090400
     19 CHD        73.8206   57.6043   40.1875 aa         1 CLA     -0.052000
     20 CMA        82.0587   58.5009   37.7284 a3         1 CLA     -0.230700
     21 CMB        81.6170   61.6181   41.7254 a3         1 CLA     -0.180800
     22 CMC        74.4617   59.6814   44.8480 a3         1 CLA     -0.134000
     23 CMD        72.8576   55.3332   38.1195 a3         1 CLA     -0.141100
     24 C1         82.4454   55.1124   34.9748 a2         1 CLA      0.023000
     25 C1A        78.4891   57.9599   37.1523 ac         1 CLA     -0.015100
     26 C1B        79.5340   60.5707   40.5916 cr         1 CLA      0.054700
     27 C1C        75.7115   59.6109   42.5614 cn         1 CLA     -0.005600
     28 C1D        74.4938   57.2293   39.0687 ap         1 CLA     -0.047300
     29 O1A        81.2084   56.2181   32.7585 o2         1 CLA     -0.610800
     30 O1D        79.3015   54.8534   35.5824 o2         1 CLA     -0.558200
     31 C2         82.8530   54.8346   36.4263 c8         1 CLA     -0.325100
     32 C2A        79.8180   57.9630   36.3949 a1         1 CLA      0.098600
     33 C2B        80.1472   61.2626   41.7409 cb         1 CLA      0.088500
     34 C2C        74.5927   59.2717   43.4128 cb         1 CLA      0.053700
     35 C2D        74.1409   56.1302   38.1985 cb         1 CLA      0.058900
     36 O2A        82.1197   56.5312   34.8938 o1         1 CLA     -0.437200
     37 O2D        77.7448   53.8516   36.8855 o1         1 CLA     -0.357600
     38 C3         84.0531   54.2760   36.7182 c5         1 CLA      0.031200
     39 C3A        80.7185   59.0464   37.1671 a1         1 CLA      0.166800
     40 C3B        79.2184   61.3480   42.7244 cb         1 CLA      0.035000
     41 C3C        73.7735   58.4525   42.6378 cb         1 CLA     -0.089900
     42 C3D        75.2261   56.1480   37.2675 cb         1 CLA     -0.035900
     43 C4         84.0569   52.7533   36.9995 a3         1 CLA     -0.053300
     44 C4A        79.8164   59.3696   38.3441 ac         1 CLA      0.001800
     45 C4B        78.0409   60.6443   42.1807 cn         1 CLA     -0.020900
     46 C4C        74.2772   58.3429   41.2844 cr         1 CLA     -0.044400
     47 C4D        76.1814   57.1650   37.6554 c6         1 CLA     -0.046000
     48 C5         85.5149   54.9378   36.5778 a2         1 CLA     -0.070400
     49 C6         86.2392   55.4153   37.8383 a2         1 CLA      0.043900
     50 C7         87.1975   56.6478   37.6017 a2         1 CLA     -0.150000
     51 C8         88.0425   57.0277   38.8340 a1         1 CLA      0.064200
     52 C9         89.1598   56.0111   39.1954 a3         1 CLA     -0.259300
     53 C10        87.1443   57.4624   40.1476 a2         1 CLA     -0.071900
     54 C11        87.8904   58.1186   41.3655 a2         1 CLA      0.014500
     55 C12        87.0390   58.1924   42.6201 a2         1 CLA     -0.112100
     56 C13        87.9102   58.6158   43.8916 a1         1 CLA      0.089200
     57 C14        88.8422   57.4963   44.4179 a3         1 CLA     -0.239100
     58 C15        86.9295   59.1609   45.0430 a2         1 CLA     -0.102200
     59 C16        87.6324   60.0704   46.0803 a2         1 CLA      0.023900
     60 C17        87.0324   59.9659   47.4391 a2         1 CLA     -0.105700
     61 C18        87.3627   58.6208   48.1512 a1         1 CLA      0.206800
     62 C19        88.7402   58.6431   48.8060 a3         1 CLA     -0.280100
     63 C20        86.3689   58.2414   49.2290 a3         1 CLA     -0.280100
     64 NC         75.4784   59.1328   41.2660 nx         1 CLA     -0.309200
     65 MG         76.8738   59.1712   39.7604 mg         1 CLA      0.895000
     66 HMD3       73.0844   54.5303   37.4177 dc         1 CLA      0.064300
     67 HMD2       72.6168   54.7799   39.0349 dc         1 CLA      0.064300
     68 HMD1       72.0298   55.9844   37.9536 dc         1 CLA      0.064300
     69 HMC3       74.5904   58.8672   45.4368 dc         1 CLA      0.052100
     70 HMC2       75.3324   60.3336   45.1491 dc         1 CLA      0.052100
     71 HMC1       73.4135   60.0828   44.9725 dc         1 CLA      0.052100
     72 HMB3       82.2279   60.8220   41.3139 dc         1 CLA      0.063600
     73 HMB2       81.7427   62.5312   41.0841 dc         1 CLA      0.063600
     74 HMB1       81.9103   61.7343   42.6881 dc         1 CLA      0.063600
     75 HMA3       82.7609   59.2465   38.1131 dc         1 CLA      0.058300
     76 HMA2       81.8930   57.6607   38.3814 dc         1 CLA      0.058300
     77 HMA1       82.6121   58.1591   36.8917 dc         1 CLA      0.058300
     78 HED3       78.1437   51.8780   37.7470 dc         1 CLA      0.079300
     79 HED2       78.6370   51.9302   36.0725 dc         1 CLA      0.079300
     80 HED1       79.4852   52.8253   37.1901 dc         1 CLA      0.079300
     81 HBC3       73.5919   56.6010   44.7289 dc         1 CLA      0.016300
     82 HBC2       72.0083   56.1046   44.5533 dc         1 CLA      0.016300
     83 HBC1       73.1550   55.6047   43.2734 dc         1 CLA      0.016300
     84 HBB2       80.4767   63.1333   45.4928 da         1 CLA      0.183000
     85 HBB1       80.7222   63.4516   43.6867 da         1 CLA      0.183000
     86 HBA2       80.5721   58.7164   32.9808 dc         1 CLA      0.029400
     87 HBA1       81.5260   59.0113   34.3289 dc         1 CLA      0.029400
     88 HAC2       72.0613   58.3142   43.8869 dc         1 CLA      0.029300
     89 HAC1       71.8211   57.4644   42.4079 dc         1 CLA      0.029300
     90 HAA2       78.7796   57.9184   34.4772 dc         1 CLA      0.028700
     91 HAA1       79.2675   59.4816   35.0509 dc         1 CLA      0.028700
     92 H203       86.4318   58.9739   50.0111 dc         1 CLA      0.065600
     93 H202       85.4484   58.2745   48.7229 dc         1 CLA      0.065600
     94 H201       86.4954   57.2167   49.7082 dc         1 CLA      0.065600
     95 H193       88.8721   59.4396   49.4681 dc         1 CLA      0.065600
     96 H192       89.0775   57.7058   49.2833 dc         1 CLA      0.065600
     97 H191       89.5377   58.8383   48.0687 dc         1 CLA      0.065600
     98 H172       87.4017   60.8115   48.0284 dc         1 CLA      0.027600
     99 H171       85.9330   60.0725   47.2625 dc         1 CLA      0.027600
    100 H162       88.6289   59.7970   46.0776 dc         1 CLA      0.002900
    101 H161       87.6548   61.0695   45.7438 dc         1 CLA      0.002900
    102 H152       86.1553   59.7348   44.5603 dc         1 CLA      0.029100
    103 H151       86.4575   58.2079   45.2913 dc         1 CLA      0.029100
    104 H143       89.7223   57.8101   45.0267 dc         1 CLA      0.063600
    105 H142       88.3337   56.7878   44.9985 dc         1 CLA      0.063600
    106 H141       89.2896   56.9469   43.5787 dc         1 CLA      0.063600
    107 H122       86.2897   58.9265   42.3749 dc         1 CLA      0.032500
    108 H121       86.4707   57.2091   42.7761 dc         1 CLA      0.032500
    109 H112       88.7789   57.6313   41.4808 dc         1 CLA      0.006600
    110 H111       88.0644   59.1594   41.0284 dc         1 CLA      0.006600
    111 H102       86.3397   58.1042   39.8529 dc         1 CLA      0.024100
    112 H101       86.7203   56.5355   40.4524 dc         1 CLA      0.024100
    113 HHD        72.8921   57.1397   40.4589 da         1 CLA      0.174300
    114 HHC        77.0326   60.5400   43.9963 da         1 CLA      0.136800
    115 HHB        81.2540   60.5835   39.3413 da         1 CLA      0.138300
    116 HBD        77.3087   56.1646   34.8851 dc         1 CLA      0.107700
    117 HAB        78.9918   61.2400   45.0049 da         1 CLA      0.155200
    118 H93        89.8741   56.5238   39.8455 dc         1 CLA      0.069500
    119 H92        88.8348   55.1162   39.6909 dc         1 CLA      0.069500
    120 H91        89.6465   55.7887   38.2413 dc         1 CLA      0.069500
    121 H8         88.6604   57.8407   38.5084 dc         1 CLA      0.029300
    122 H72        87.8616   56.4486   36.7802 dc         1 CLA      0.044400
    123 H71        86.6832   57.5728   37.3217 dc         1 CLA      0.044400
    124 H62        85.5386   55.6151   38.6639 dc         1 CLA      0.015600
    125 H61        86.9518   54.6699   38.1367 dc         1 CLA      0.015600
    126 H52        86.2364   54.3269   35.9791 dc         1 CLA      0.033200
    127 H51        85.2435   55.8596   36.0124 dc         1 CLA      0.033200
    128 H43        84.7234   52.7957   37.8970 dc         1 CLA      0.037000
    129 H42        83.1491   52.2990   37.2247 dc         1 CLA      0.037000
    130 H41        84.4977   52.1714   36.1998 dc         1 CLA      0.037000
    131 H3A        80.8807   59.9936   36.6640 dc         1 CLA      0.041100
    132 H2A        80.3911   56.9605   36.4667 dc         1 CLA      0.083100
    133 H2         82.2738   55.2768   37.2023 da         1 CLA      0.180900
    134 H18        87.3202   57.8085   47.4037 dc         1 CLA     -0.003900
    135 H13        88.5456   59.4902   43.5662 dc         1 CLA      0.019700
    136 H12        81.6747   54.4001   34.5936 dc         1 CLA      0.120400
    137 H11        83.2810   54.8413   34.3115 dc         1 CLA      0.120400
    138 C1         69.6087   62.5742   49.7931 Z1         2 LUT      0.509236
    139 C2         68.4214   62.3790   50.7408 Z2         2 LUT     -0.434695
    140 C3         67.6200   63.5460   51.2013 Z3         2 LUT      0.437453
    141 O3         68.0600   64.0011   52.4998 S1         2 LUT     -0.547129
    142 C4         67.7310   64.7711   50.2136 Z4         2 LUT     -0.468603
    143 C5         68.3526   64.5656   48.8660 Z5         2 LUT      0.279246
    144 C6         69.2874   63.6129   48.6126 Z6         2 LUT     -0.305473
    145 C7         69.5927   63.1431   47.2524 Z7         2 LUT      0.069402
    146 C8         70.8179   63.0876   46.7037 Z8         2 LUT     -0.191631
    147 C9         71.3764   62.7009   45.4063 Z9         2 LUT      0.196698
    148 C10        72.6349   63.2218   45.1787 Y1         2 LUT     -0.208611
    149 C11        73.4806   62.9901   44.0379 Y2         2 LUT      0.030784
    150 C12        74.6119   63.6670   43.7796 Y3         2 LUT     -0.220316
    151 C13        75.5879   63.6983   42.6923 Y4         2 LUT      0.215937
    152 C14        76.7459   64.3408   42.8837 Y5         2 LUT     -0.185793
    153 C15        77.8157   64.4360   41.9377 Y6         2 LUT     -0.057835
    154 C16        70.0858   61.1377   49.3867 Y7         2 LUT     -0.405615
    155 C17        70.8106   63.2434   50.4951 Y7         2 LUT     -0.405615
    156 C18        67.6859   65.4091   47.7649 Y9         2 LUT     -0.369639
    157 C19        70.6468   61.8152   44.4291 W1         2 LUT     -0.333362
    158 C20        75.0957   63.1791   41.3503 W2         2 LUT     -0.323439
    159 C21        88.4990   65.3693   35.3354 Z1         2 LUT      0.406104
    160 C22        89.2451   64.5609   34.2341 Z2         2 LUT     -0.404965
    161 C23        89.4098   65.3534   32.9147 Z3         2 LUT      0.391255
    162 O23        89.9021   64.3975   31.9973 S1         2 LUT     -0.528210
    163 C24        88.1991   66.1742   32.5646 W6         2 LUT     -0.258361
    164 C25        87.1256   66.4250   33.4032 Z5         2 LUT      0.133546
    165 C26        87.1100   65.8637   34.8058 W8         2 LUT     -0.147008
    166 C27        86.4509   66.7188   35.8514 Z7         2 LUT      0.023843
    167 C28        85.4306   66.3072   36.5921 Z8         2 LUT     -0.216987
    168 C29        85.0318   66.8214   37.8842 Z9         2 LUT      0.206524
    169 C30        83.8634   66.1677   38.3743 Y1         2 LUT     -0.215556
    170 C31        83.1027   66.3797   39.5785 Y2         2 LUT      0.025142
    171 C32        81.9221   65.7591   39.8736 Y3         2 LUT     -0.212209
    172 C33        81.1192   65.9858   41.0105 Y4         2 LUT      0.240937
    173 C34        79.9960   65.1860   41.1239 Y5         2 LUT     -0.218862
    174 C35        78.9155   65.2404   42.0296 Y6         2 LUT     -0.023547
    175 C36        89.4556   66.3474   35.9831 Y7         2 LUT     -0.393485
    176 C37        88.3378   64.3415   36.4482 Y7         2 LUT     -0.393485
    177 C38        85.8462   67.1240   32.9210 Y9         2 LUT     -0.387526
    178 C39        85.6563   68.0943   38.4855 W1         2 LUT     -0.322618
    179 C40        81.3843   67.1356   42.0767 W2         2 LUT     -0.358472
    180 H403       82.4256   67.4121   42.1512 R7         2 LUT      0.097720
    181 H402       80.9148   68.0668   41.7575 R7         2 LUT      0.097720
    182 H401       81.0609   66.9682   43.0850 R7         2 LUT      0.097720
    183 H393       86.5473   67.7810   39.1074 R4         2 LUT      0.082505
    184 H392       85.9817   68.8622   37.7523 R4         2 LUT      0.082505
    185 H391       84.9998   68.6152   39.1830 R4         2 LUT      0.082505
    186 H383       85.1740   66.3427   32.5160 R1         2 LUT      0.104030
    187 H382       85.3172   67.7346   33.7386 R1         2 LUT      0.104030
    188 H381       85.9513   67.8104   32.0125 R1         2 LUT      0.104030
    189 H373       87.7559   64.8595   37.3401 T4         2 LUT      0.089537
    190 H372       87.7139   63.5203   36.1394 T4         2 LUT      0.089537
    191 H371       89.3287   64.0229   36.7630 T4         2 LUT      0.089537
    192 H363       89.2237   66.5714   37.0535 T4         2 LUT      0.089537
    193 H362       90.5111   66.0039   35.8976 T4         2 LUT      0.089537
    194 H361       89.3677   67.3129   35.3730 T4         2 LUT      0.089537
    195 H222       90.2128   64.2011   34.5754 U2         2 LUT      0.127376
    196 H221       88.5587   63.7706   33.9649 U2         2 LUT      0.127376
    197 H203       74.7402   63.9763   40.8097 R7         2 LUT      0.087068
    198 H202       75.7950   62.6738   40.7229 R7         2 LUT      0.087068
    199 H201       74.2779   62.5041   41.4409 R7         2 LUT      0.087068
    200 H193       71.1594   61.0447   43.9269 R4         2 LUT      0.089716
    201 H192       69.7581   61.2411   44.7738 R4         2 LUT      0.089716
    202 H191       70.2762   62.5124   43.7473 R4         2 LUT      0.089716
    203 H183       66.7274   65.8911   48.1672 R1         2 LUT      0.094572
    204 H182       68.3661   66.2326   47.5425 R1         2 LUT      0.094572
    205 H181       67.4094   64.9508   46.8187 R1         2 LUT      0.094572
    206 H173       71.6489   63.4913   49.8569 T4         2 LUT      0.093752
    207 H172       70.6770   64.1915   51.0135 T4         2 LUT      0.093752
    208 H171       71.2401   62.4585   51.1053 T4         2 LUT      0.093752
    209 H163       71.0728   61.2022   48.8125 T4         2 LUT      0.093752
    210 H162       70.1266   60.4683   50.2153 T4         2 LUT      0.093752
    211 H161       69.3199   60.6986   48.7137 T4         2 LUT      0.093752
    212 HO3        67.6330   63.5583   53.2049 Q1         2 LUT      0.300121
    213 H8         71.4707   63.3691   47.4203 U7         2 LUT      0.080784
    214 H7         68.7954   62.7496   46.6879 U6         2 LUT      0.042190
    215 H42        66.7719   65.3605   50.1753 U5         2 LUT      0.145166
    216 H41        68.3254   65.5718   50.7260 U5         2 LUT      0.145166
    217 H35        78.9996   65.9076   42.9413 T3         2 LUT      0.077919
    218 H34        79.7992   64.3586   40.3383 T2         2 LUT      0.073626
    219 H32        81.5302   64.9489   39.2059 T1         2 LUT      0.092510
    220 H31        83.4643   67.1581   40.2939 U9         2 LUT      0.070048
    221 H30        83.4765   65.3826   37.7862 U8         2 LUT      0.085442
    222 H3         66.5620   63.3192   51.2691 U3         2 LUT     -0.031596
    223 H28        84.8595   65.4200   36.2022 U7         2 LUT      0.084728
    224 H27        87.0038   67.6089   36.2136 U6         2 LUT      0.087291
    225 H26        86.5520   64.9886   34.5228 Q6         2 LUT      0.075325
    226 H24        88.2650   66.6887   31.5894 Q5         2 LUT      0.094482
    227 H23        90.2503   66.0205   33.1898 U3         2 LUT     -0.024869
    228 H22        67.6264   61.8384   50.2633 U2         2 LUT      0.127376
    229 H21        68.6418   61.6275   51.5666 U2         2 LUT      0.127376
    230 H15        77.7339   63.7569   41.0546 T3         2 LUT      0.093200
    231 H14        76.9700   64.8421   43.8547 T2         2 LUT      0.068865
    232 H12        74.8672   64.4097   44.5946 T1         2 LUT      0.095507
    233 H11        73.0885   62.2366   43.3000 U9         2 LUT      0.068930
    234 H10        73.0758   63.8426   45.9398 U8         2 LUT      0.083911
    235 H1         90.2694   64.8549   31.2595 Q1         2 LUT      0.297311
@<TRIPOS>BOND
    1     6     1 1
    2     7     2 1
    3     8     3 1
    4     9     4 1
    5    11     4 1
    6    12     6 1
    7    13     9 1
    8    16     9 1
    9    25     5 1
   10    25    16 1
   11    26    10 1
   12    26    17 1
   13    27    18 1
   14    28    14 1
   15    28    19 1
   16    29    12 1
   17    30    13 1
   18    31    24 1
   19    32     1 1
   20    32    25 1
   21    33    21 1
   22    33    26 1
   23    34    22 1
   24    34    27 1
   25    35    23 1
   26    35    28 1
   27    36    12 1
   28    36    24 1
   29    37    13 1
   30    37    15 1
   31    38    31 1
   32    39    20 1
   33    39    32 1
   34    40     2 1
   35    40    33 1
   36    41     3 1
   37    41    34 1
   38    42     4 1
   39    42    35 1
   40    43    38 1
   41    44     5 1
   42    44    17 1
   43    44    39 1
   44    45    10 1
   45    45    18 1
   46    45    40 1
   47    46    19 1
   48    46    41 1
   49    47    14 1
   50    47    16 1
   51    47    42 1
   52    48    38 1
   53    49    48 1
   54    50    49 1
   55    51    50 1
   56    52    51 1
   57    53    51 1
   58    54    53 1
   59    55    54 1
   60    56    55 1
   61    57    56 1
   62    58    56 1
   63    59    58 1
   64    60    59 1
   65    61    60 1
   66    62    61 1
   67    63    61 1
   68    64    27 1
   69    64    46 1
   70    65     5 1
   71    65    10 1
   72    65    64 1
   73    65    14 1
   74    66    23 1
   75    67    23 1
   76    68    23 1
   77    69    22 1
   78    70    22 1
   79    71    22 1
   80    72    21 1
   81    73    21 1
   82    74    21 1
   83    75    20 1
   84    76    20 1
   85    77    20 1
   86    78    15 1
   87    79    15 1
   88    80    15 1
   89    81     8 1
   90    82     8 1
   91    83     8 1
   92    84     7 1
   93    85     7 1
   94    86     6 1
   95    87     6 1
   96    88     3 1
   97    89     3 1
   98    90     1 1
   99    91     1 1
  100    92    63 1
  101    93    63 1
  102    94    63 1
  103    95    62 1
  104    96    62 1
  105    97    62 1
  106    98    60 1
  107    99    60 1
  108   100    59 1
  109   101    59 1
  110   102    58 1
  111   103    58 1
  112   104    57 1
  113   105    57 1
  114   106    57 1
  115   107    55 1
  116   108    55 1
  117   109    54 1
  118   110    54 1
  119   111    53 1
  120   112    53 1
  121   113    19 1
  122   114    18 1
  123   115    17 1
  124   116     9 1
  125   117     2 1
  126   118    52 1
  127   119    52 1
  128   120    52 1
  129   121    51 1
  130   122    50 1
  131   123    50 1
  132   124    49 1
  133   125    49 1
  134   126    48 1
  135   127    48 1
  136   128    43 1
  137   129    43 1
  138   130    43 1
  139   131    39 1
  140   132    32 1
  141   133    31 1
  142   134    61 1
  143   135    56 1
  144   136    24 1
  145   137    24 1
  146   139   138 1
  147   140   139 1
  148   141   140 1
  149   142   140 1
  150   143   142 1
  151   144   138 1
  152   144   143 1
  153   145   144 1
  154   146   145 1
  155   147   146 1
  156   148   147 1
  157   149   148 1
  158   150   149 1
  159   151   150 1
  160   152   151 1
  161   153   152 1
  162   154   138 1
  163   155   138 1
  164   156   143 1
  165   157   147 1
  166   158   151 1
  167   160   159 1
  168   161   160 1
  169   162   161 1
  170   163   161 1
  171   164   163 1
  172   165   159 1
  173   165   164 1
  174   166   165 1
  175   167   166 1
  176   168   167 1
  177   169   168 1
  178   170   169 1
  179   171   170 1
  180   172   171 1
  181   173   172 1
  182   174   153 1
  183   174   173 1
  184   175   159 1
  185   176   159 1
  186   177   164 1
  187   178   168 1
  188   179   172 1
  189   180   179 1
  190   181   179 1
  191   182   179 1
  192   183   178 1
  193   184   178 1
  194   185   178 1
  195   186   177 1
  196   187   177 1
  197   188   177 1
  198   189   176 1
  199   190   176 1
  200   191   176 1
  201   192   175 1
  202   193   175 1
  203   194   175 1
  204   195   160 1
  205   196   160 1
  206   197   158 1
  207   198   158 1
  208   199   158 1
  209   200   157 1
  210   201   157 1
  211   202   157 1
  212   203   156 1
  213   204   156 1
  214   205   156 1
  215   206   155 1
  216   207   155 1
  217   208   155 1
  218   209   154 1
  219   210   154 1
  220   211   154 1
  221   212   141 1
  222   213   146 1
  223   214   145 1
  224   215   142 1
  225   216   142 1
  226   217   174 1
  227   218   173 1
  228   219   171 1
  229   220   170 1
  230   221   169 1
  231   222   140 1
  232   223   167 1
  233   224   166 1
  234   225   165 1
  235   226   163 1
  236   227   161 1
  237   228   139 1
  238   229   139 1
  239   230   153 1
  240   231   152 1
  241   232   150 1
  242   233   149 1
  243   234   148 1
  244   235   162 1
  245   65    153 1
  246   65    174 1
@<TRIPOS>SUBSTRUCTURE
      1 CLA               1 ****               0 ****  **** 
      2 LUT             138 ****               0 ****  **** 
