@<TRIPOS>MOLECULE
Cpptraj generated mol2 file.
  235   246     2     0     0
SMALL
USER_CHARGES


@<TRIPOS>ATOM
      1 CAA        77.6104   57.6399   35.7468 a2         1 CLA     -0.055900
      2 CAB        78.1202   62.0526   44.2811 c8         1 CLA     -0.148500
      3 CAC        70.9852   58.1854   44.0191 a2         1 CLA     -0.012600
      4 CAD        73.5699   55.0490   37.0309 ck         1 CLA      0.398800
      5 NA         76.8233   58.1726   39.0820 ns         1 CLA     -0.225500
      6 CBA        78.8396   57.6513   34.7391 a2         1 CLA     -0.135000
      7 CBB        78.0184   61.5925   45.5461 c0         1 CLA     -0.395200
      8 CBC        70.8516   56.6958   44.2937 a3         1 CLA     -0.037700
      9 CBD        75.0121   55.5600   36.7471 a1         1 CLA     -0.053900
     10 NB         76.8148   59.9841   41.5413 nm         1 CLA     -0.295700
     11 OBD        72.9601   54.3380   36.2553 o2         1 CLA     -0.494600
     12 CGA        79.5094   56.3425   34.3931 c4         1 CLA      0.827000
     13 CGD        75.8987   54.3242   36.7764 c4         1 CLA      0.655300
     14 ND         74.0007   57.4106   39.6313 nm         1 CLA     -0.291600
     15 CED        76.6070   52.4527   38.0860 a3         1 CLA      0.005400
     16 CHA        75.3891   56.6454   37.7839 cs         1 CLA     -0.123800
     17 CHB        78.6329   59.4915   39.9816 aa         1 CLA     -0.291900
     18 CHC        75.5290   60.3808   43.5415 aa         1 CLA     -0.090400
     19 CHD        72.0845   57.6101   41.1892 aa         1 CLA     -0.052000
     20 CMA        80.2156   57.3062   38.2866 a3         1 CLA     -0.230700
     21 CMB        80.2612   61.5518   41.8416 a3         1 CLA     -0.180800
     22 CMC        73.2221   59.7930   45.6074 a3         1 CLA     -0.134000
     23 CMD        70.7135   55.6798   39.1610 a3         1 CLA     -0.141100
     24 C1         80.2976   54.2498   35.1987 a2         1 CLA      0.023000
     25 C1A        76.6365   57.2866   38.0100 ac         1 CLA     -0.015100
     26 C1B        78.0854   60.1106   41.1149 cr         1 CLA      0.054700
     27 C1C        74.3904   59.5753   43.2455 cn         1 CLA     -0.005600
     28 C1D        72.7391   57.1001   39.9939 ap         1 CLA     -0.047300
     29 O1A        79.6906   55.9079   33.2528 o2         1 CLA     -0.610800
     30 O1D        76.8455   54.0601   35.9940 o2         1 CLA     -0.558200
     31 C2         80.5664   53.7039   36.4933 c8         1 CLA     -0.325100
     32 C2A        77.8542   57.1752   37.1307 a1         1 CLA      0.098600
     33 C2B        78.8059   61.0179   42.0323 cb         1 CLA      0.088500
     34 C2C        73.2870   59.2916   44.1827 cb         1 CLA      0.053700
     35 C2D        72.1193   56.1568   39.0627 cb         1 CLA      0.058900
     36 O2A        79.7559   55.5983   35.4879 o1         1 CLA     -0.437200
     37 O2D        75.6695   53.5732   37.8915 o1         1 CLA     -0.357600
     38 C3         81.7574   53.4745   37.0637 c5         1 CLA      0.031200
     39 C3A        78.8987   58.0270   37.8852 a1         1 CLA      0.166800
     40 C3B        77.9223   61.2689   43.0893 cb         1 CLA      0.035000
     41 C3C        72.3369   58.6316   43.4639 cb         1 CLA     -0.089900
     42 C3D        73.1657   55.8500   38.1789 cb         1 CLA     -0.035900
     43 C4         82.6225   52.3553   36.4436 a3         1 CLA     -0.053300
     44 C4A        78.0854   58.6089   39.0659 ac         1 CLA      0.001800
     45 C4B        76.6761   60.5534   42.7964 cn         1 CLA     -0.020900
     46 C4C        72.8275   58.3557   42.1733 cr         1 CLA     -0.044400
     47 C4D        74.2183   56.7238   38.4979 c6         1 CLA     -0.046000
     48 C5         82.4165   54.6738   37.8161 a2         1 CLA     -0.070400
     49 C6         83.7910   54.3558   38.4690 a2         1 CLA      0.043900
     50 C7         84.1692   55.3891   39.5253 a2         1 CLA     -0.150000
     51 C8         84.1216   56.8793   39.1724 a1         1 CLA      0.064200
     52 C9         85.2964   57.1785   38.1987 a3         1 CLA     -0.259300
     53 C10        84.3478   57.7841   40.3967 a2         1 CLA     -0.071900
     54 C11        83.1960   57.8658   41.4595 a2         1 CLA      0.014500
     55 C12        83.3754   59.0855   42.4340 a2         1 CLA     -0.112100
     56 C13        84.7244   59.1379   43.2766 a1         1 CLA      0.089200
     57 C14        84.9120   57.8232   44.0269 a3         1 CLA     -0.239100
     58 C15        84.7845   60.3645   44.2202 a2         1 CLA     -0.102200
     59 C16        83.5305   60.6365   45.0302 a2         1 CLA      0.023900
     60 C17        83.8299   61.4862   46.3539 a2         1 CLA     -0.105700
     61 C18        82.6372   61.7608   47.2076 a1         1 CLA      0.206800
     62 C19        81.6695   62.8148   46.5503 a3         1 CLA     -0.280100
     63 C20        81.9653   60.5354   47.6705 a3         1 CLA     -0.280100
     64 NC         74.1565   58.9257   42.1047 nx         1 CLA     -0.309200
     65 MG         75.3927   58.6559   40.5629 mg         1 CLA      0.895000
     66 HMD3       70.2740   55.8366   40.1781 dc         1 CLA      0.064300
     67 HMD2       70.1403   56.3508   38.5257 dc         1 CLA      0.064300
     68 HMD1       70.4921   54.6217   38.9666 dc         1 CLA      0.064300
     69 HMC3       74.0612   60.4905   45.6654 dc         1 CLA      0.052100
     70 HMC2       72.3182   60.3610   45.7430 dc         1 CLA      0.052100
     71 HMC1       73.4067   59.0036   46.3302 dc         1 CLA      0.052100
     72 HMB3       80.4603   61.6810   40.7666 dc         1 CLA      0.063600
     73 HMB2       80.2377   62.5826   42.1837 dc         1 CLA      0.063600
     74 HMB1       81.0987   61.0398   42.3573 dc         1 CLA      0.063600
     75 HMA3       80.9599   57.9414   38.8069 dc         1 CLA      0.058300
     76 HMA2       79.8386   56.5433   38.9410 dc         1 CLA      0.058300
     77 HMA1       80.6022   56.8506   37.4077 dc         1 CLA      0.058300
     78 HED3       76.4312   52.1020   39.0963 dc         1 CLA      0.079300
     79 HED2       76.4236   51.5813   37.5291 dc         1 CLA      0.079300
     80 HED1       77.7062   52.6753   38.1048 dc         1 CLA      0.079300
     81 HBC3       71.4348   56.3696   45.1750 dc         1 CLA      0.016300
     82 HBC2       69.8147   56.3833   44.3258 dc         1 CLA      0.016300
     83 HBC1       71.2647   56.2179   43.4557 dc         1 CLA      0.016300
     84 HBB2       78.3597   62.2912   46.4247 da         1 CLA      0.183000
     85 HBB1       77.7466   60.6136   45.9116 da         1 CLA      0.183000
     86 HBA2       78.5795   58.1048   33.7386 dc         1 CLA      0.029400
     87 HBA1       79.6079   58.2875   35.1717 dc         1 CLA      0.029400
     88 HAC2       70.7771   58.5573   45.0104 dc         1 CLA      0.029300
     89 HAC1       70.2279   58.4648   43.3868 dc         1 CLA      0.029300
     90 HAA2       76.8073   56.9983   35.2560 dc         1 CLA      0.028700
     91 HAA1       77.2884   58.7067   35.8760 dc         1 CLA      0.028700
     92 H203       81.4116   60.1938   46.8083 dc         1 CLA      0.065600
     93 H202       82.6497   59.7810   47.9940 dc         1 CLA      0.065600
     94 H201       81.2185   60.8838   48.4136 dc         1 CLA      0.065600
     95 H193       82.1252   63.7140   46.0584 dc         1 CLA      0.065600
     96 H192       81.0990   62.3450   45.7322 dc         1 CLA      0.065600
     97 H191       80.9527   63.1463   47.2869 dc         1 CLA      0.065600
     98 H172       84.5390   60.8935   46.9459 dc         1 CLA      0.027600
     99 H171       84.2915   62.4883   46.1468 dc         1 CLA      0.027600
    100 H162       82.8744   61.1118   44.3848 dc         1 CLA      0.002900
    101 H161       83.0895   59.6957   45.5307 dc         1 CLA      0.002900
    102 H152       85.5695   60.2283   44.9683 dc         1 CLA      0.029100
    103 H151       84.9015   61.3047   43.6128 dc         1 CLA      0.029100
    104 H143       85.4140   57.2473   43.3629 dc         1 CLA      0.063600
    105 H142       85.4599   57.8451   44.8782 dc         1 CLA      0.063600
    106 H141       83.9437   57.4410   44.3219 dc         1 CLA      0.063600
    107 H122       83.1287   59.9928   41.7826 dc         1 CLA      0.032500
    108 H121       82.5857   59.0188   43.1780 dc         1 CLA      0.032500
    109 H112       82.3041   58.0339   40.8581 dc         1 CLA      0.006600
    110 H111       83.1396   56.9109   42.0431 dc         1 CLA      0.006600
    111 H102       85.3020   57.6162   40.9005 dc         1 CLA      0.024100
    112 H101       84.5721   58.8322   40.0513 dc         1 CLA      0.024100
    113 HHD        71.1359   57.2332   41.4582 da         1 CLA      0.174300
    114 HHC        75.6758   60.9730   44.4263 da         1 CLA      0.136800
    115 HHB        79.6671   59.6497   39.8478 da         1 CLA      0.138300
    116 HBD        75.0725   55.9159   35.7187 dc         1 CLA      0.107700
    117 HAB        78.5966   62.9937   44.0792 da         1 CLA      0.155200
    118 H93        86.2573   57.0477   38.6794 dc         1 CLA      0.069500
    119 H92        85.3150   56.4367   37.3635 dc         1 CLA      0.069500
    120 H91        85.1967   58.2350   37.9304 dc         1 CLA      0.069500
    121 H8         83.1440   57.0850   38.7756 dc         1 CLA      0.029300
    122 H72        83.4622   55.2171   40.3113 dc         1 CLA      0.044400
    123 H71        85.1891   55.1515   39.9581 dc         1 CLA      0.044400
    124 H62        83.7522   53.3580   38.9566 dc         1 CLA      0.015600
    125 H61        84.5597   54.4121   37.7365 dc         1 CLA      0.015600
    126 H52        82.4586   55.4652   37.1075 dc         1 CLA      0.033200
    127 H51        81.7327   54.8890   38.6742 dc         1 CLA      0.033200
    128 H43        83.2783   52.8144   35.6391 dc         1 CLA      0.037000
    129 H42        83.1395   51.9035   37.2564 dc         1 CLA      0.037000
    130 H41        81.8862   51.6373   36.0142 dc         1 CLA      0.037000
    131 H3A        79.2514   58.8336   37.3274 dc         1 CLA      0.041100
    132 H2A        78.1440   56.1647   37.1093 dc         1 CLA      0.083100
    133 H2         79.7077   53.2411   37.0084 da         1 CLA      0.180900
    134 H18        82.9810   62.3693   48.0421 dc         1 CLA     -0.003900
    135 H13        85.6513   59.2979   42.6038 dc         1 CLA      0.019700
    136 H12        79.4588   53.7340   34.6420 dc         1 CLA      0.120400
    137 H11        81.1156   54.3349   34.5665 dc         1 CLA      0.120400
    138 C1         67.5877   62.7658   51.4019 Z1         2 LUT      0.509236
    139 C2         67.4718   64.1691   52.0451 Z2         2 LUT     -0.434695
    140 C3         66.0242   64.7178   52.0851 Z3         2 LUT      0.437453
    141 O3         66.1459   66.1184   52.5468 S1         2 LUT     -0.547129
    142 C4         65.6430   64.8349   50.6026 Z4         2 LUT     -0.468603
    143 C5         66.2291   63.7550   49.6028 Z5         2 LUT      0.279246
    144 C6         67.1550   62.8893   49.8904 Z6         2 LUT     -0.305473
    145 C7         67.8718   62.0498   48.8867 Z7         2 LUT      0.069402
    146 C8         68.5729   62.5702   47.8499 Z8         2 LUT     -0.191631
    147 C9         69.1035   61.9294   46.5428 Z9         2 LUT      0.196698
    148 C10        69.9487   62.7011   45.7793 Y1         2 LUT     -0.208611
    149 C11        70.5545   62.4051   44.4253 Y2         2 LUT      0.030784
    150 C12        71.6943   63.0414   44.0383 Y3         2 LUT     -0.220316
    151 C13        72.5302   62.7426   42.8334 Y4         2 LUT      0.215937
    152 C14        73.6187   63.5396   42.6287 Y5         2 LUT     -0.185793
    153 C15        74.7116   63.4056   41.6993 Y6         2 LUT     -0.057835
    154 C16        66.5365   61.7569   52.0453 Y7         2 LUT     -0.405615
    155 C17        69.0009   62.1374   51.5499 Y7         2 LUT     -0.405615
    156 C18        65.8754   64.3510   48.1988 Y9         2 LUT     -0.369639
    157 C19        68.5619   60.5631   46.1580 W1         2 LUT     -0.333362
    158 C20        71.8082   62.0054   41.7612 W2         2 LUT     -0.323439
    159 C21        86.3525   64.5344   35.5339 Z1         2 LUT      0.406104
    160 C22        87.1762   64.1066   34.2712 Z2         2 LUT     -0.404965
    161 C23        87.1899   65.0708   33.1660 Z3         2 LUT      0.391255
    162 O23        87.8696   64.5051   32.0314 S1         2 LUT     -0.528210
    163 C24        85.8502   65.8098   32.9743 W6         2 LUT     -0.258361
    164 C25        84.8783   65.8557   33.8286 Z5         2 LUT      0.133546
    165 C26        84.8581   65.0072   35.1375 W8         2 LUT     -0.147008
    166 C27        84.0566   65.6770   36.2394 Z7         2 LUT      0.023843
    167 C28        82.8753   65.3733   36.7235 Z8         2 LUT     -0.216987
    168 C29        82.2472   65.6951   37.9882 Z9         2 LUT      0.206524
    169 C30        80.9756   65.1971   38.3138 Y1         2 LUT     -0.215556
    170 C31        80.2957   65.3482   39.5932 Y2         2 LUT      0.025142
    171 C32        79.0810   64.7933   39.7976 Y3         2 LUT     -0.212209
    172 C33        78.1547   64.8865   40.8743 Y4         2 LUT      0.240937
    173 C34        77.0026   64.1562   40.9828 Y5         2 LUT     -0.218862
    174 C35        75.8180   64.2325   41.8629 Y6         2 LUT     -0.023547
    175 C36        87.2402   65.6145   36.2511 Y7         2 LUT     -0.393485
    176 C37        86.5633   63.3315   36.4885 Y7         2 LUT     -0.393485
    177 C38        83.5918   66.6693   33.5241 Y9         2 LUT     -0.387526
    178 C39        82.9133   66.7902   38.7235 W1         2 LUT     -0.322618
    179 C40        78.7075   65.5984   42.0594 W2         2 LUT     -0.358472
    180 H403       79.0379   66.6266   41.8057 R7         2 LUT      0.097720
    181 H402       78.0127   65.7670   42.8949 R7         2 LUT      0.097720
    182 H401       79.5726   65.2124   42.5254 R7         2 LUT      0.097720
    183 H393       82.0903   67.2714   39.3362 R4         2 LUT      0.082505
    184 H392       83.6721   66.5258   39.5205 R4         2 LUT      0.082505
    185 H391       83.3371   67.6162   38.1143 R4         2 LUT      0.082505
    186 H383       82.8696   65.9833   33.0278 R1         2 LUT      0.104030
    187 H382       83.1198   67.2443   34.3575 R1         2 LUT      0.104030
    188 H381       83.7159   67.4729   32.7855 R1         2 LUT      0.104030
    189 H373       86.1904   63.4940   37.5248 T4         2 LUT      0.089537
    190 H372       86.1858   62.3658   36.1259 T4         2 LUT      0.089537
    191 H371       87.6377   63.2467   36.5097 T4         2 LUT      0.089537
    192 H363       87.2632   66.5117   35.5400 T4         2 LUT      0.089537
    193 H362       86.9266   65.9009   37.2735 T4         2 LUT      0.089537
    194 H361       88.2967   65.2390   36.3865 T4         2 LUT      0.089537
    195 H222       88.3005   63.9798   34.5213 U2         2 LUT      0.127376
    196 H221       86.7907   63.0923   34.0028 U2         2 LUT      0.127376
    197 H203       70.8032   62.4060   41.6940 R7         2 LUT      0.087068
    198 H202       72.3408   62.1007   40.8059 R7         2 LUT      0.087068
    199 H201       71.7285   60.9448   42.0292 R7         2 LUT      0.087068
    200 H193       69.1988   59.6874   46.2388 R4         2 LUT      0.089716
    201 H192       67.8042   60.3034   46.8976 R4         2 LUT      0.089716
    202 H191       68.1623   60.5033   45.0857 R4         2 LUT      0.089716
    203 H183       66.5993   65.0773   47.8259 R1         2 LUT      0.094572
    204 H182       66.0284   63.5204   47.4841 R1         2 LUT      0.094572
    205 H181       64.7841   64.6009   48.0608 R1         2 LUT      0.094572
    206 H173       69.0032   61.0738   51.2640 T4         2 LUT      0.093752
    207 H172       69.7085   62.6305   50.8465 T4         2 LUT      0.093752
    208 H171       69.4545   62.1266   52.5482 T4         2 LUT      0.093752
    209 H163       66.7538   60.8046   51.5937 T4         2 LUT      0.093752
    210 H162       66.5635   61.5516   53.0861 T4         2 LUT      0.093752
    211 H161       65.4989   62.0290   51.8571 T4         2 LUT      0.093752
    212 HO3        65.2934   66.4327   52.9381 Q1         2 LUT      0.300121
    213 H8         68.8078   63.6791   47.8181 U7         2 LUT      0.080784
    214 H7         67.6669   60.9900   48.9663 U6         2 LUT      0.042190
    215 H42        64.6587   65.0046   50.2883 U5         2 LUT      0.145166
    216 H41        65.9961   65.8250   50.1764 U5         2 LUT      0.145166
    217 H35        75.8387   64.9906   42.6107 T3         2 LUT      0.077919
    218 H34        76.8296   63.5480   40.0650 T2         2 LUT      0.073626
    219 H32        78.8304   64.0465   39.0024 T1         2 LUT      0.092510
    220 H31        80.7403   65.9698   40.2993 U9         2 LUT      0.070048
    221 H30        80.4143   64.5845   37.6483 U8         2 LUT      0.085442
    222 H3         65.1981   64.1574   52.5677 U3         2 LUT     -0.031596
    223 H28        82.1565   64.8658   36.0187 U7         2 LUT      0.084728
    224 H27        84.7201   66.2599   36.8760 U6         2 LUT      0.087291
    225 H26        84.3673   64.0808   34.8257 Q6         2 LUT      0.075325
    226 H24        85.6808   66.5225   32.1827 Q5         2 LUT      0.094482
    227 H23        87.8590   65.8562   33.5000 U3         2 LUT     -0.024869
    228 H22        67.9506   64.1048   53.0747 U2         2 LUT      0.127376
    229 H21        68.0335   64.9397   51.4797 U2         2 LUT      0.127376
    230 H15        74.6629   62.6259   40.8930 T3         2 LUT      0.093200
    231 H14        73.9141   64.3089   43.3608 T2         2 LUT      0.068865
    232 H12        72.1341   63.8067   44.6531 T1         2 LUT      0.095507
    233 H11        70.1238   61.6167   43.8657 U9         2 LUT      0.068930
    234 H10        70.3660   63.5619   46.3272 U8         2 LUT      0.083911
    235 H1         87.2590   64.2765   31.3160 Q1         2 LUT      0.297311
@<TRIPOS>BOND
    1     6     1 1
    2     7     2 1
    3     8     3 1
    4     9     4 1
    5    11     4 1
    6    12     6 1
    7    13     9 1
    8    16     9 1
    9    25     5 1
   10    25    16 1
   11    26    10 1
   12    26    17 1
   13    27    18 1
   14    28    14 1
   15    28    19 1
   16    29    12 1
   17    30    13 1
   18    31    24 1
   19    32     1 1
   20    32    25 1
   21    33    21 1
   22    33    26 1
   23    34    22 1
   24    34    27 1
   25    35    23 1
   26    35    28 1
   27    36    12 1
   28    36    24 1
   29    37    13 1
   30    37    15 1
   31    38    31 1
   32    39    20 1
   33    39    32 1
   34    40     2 1
   35    40    33 1
   36    41     3 1
   37    41    34 1
   38    42     4 1
   39    42    35 1
   40    43    38 1
   41    44     5 1
   42    44    17 1
   43    44    39 1
   44    45    10 1
   45    45    18 1
   46    45    40 1
   47    46    19 1
   48    46    41 1
   49    47    14 1
   50    47    16 1
   51    47    42 1
   52    48    38 1
   53    49    48 1
   54    50    49 1
   55    51    50 1
   56    52    51 1
   57    53    51 1
   58    54    53 1
   59    55    54 1
   60    56    55 1
   61    57    56 1
   62    58    56 1
   63    59    58 1
   64    60    59 1
   65    61    60 1
   66    62    61 1
   67    63    61 1
   68    64    27 1
   69    64    46 1
   70    65     5 1
   71    65    10 1
   72    65    64 1
   73    65    14 1
   74    66    23 1
   75    67    23 1
   76    68    23 1
   77    69    22 1
   78    70    22 1
   79    71    22 1
   80    72    21 1
   81    73    21 1
   82    74    21 1
   83    75    20 1
   84    76    20 1
   85    77    20 1
   86    78    15 1
   87    79    15 1
   88    80    15 1
   89    81     8 1
   90    82     8 1
   91    83     8 1
   92    84     7 1
   93    85     7 1
   94    86     6 1
   95    87     6 1
   96    88     3 1
   97    89     3 1
   98    90     1 1
   99    91     1 1
  100    92    63 1
  101    93    63 1
  102    94    63 1
  103    95    62 1
  104    96    62 1
  105    97    62 1
  106    98    60 1
  107    99    60 1
  108   100    59 1
  109   101    59 1
  110   102    58 1
  111   103    58 1
  112   104    57 1
  113   105    57 1
  114   106    57 1
  115   107    55 1
  116   108    55 1
  117   109    54 1
  118   110    54 1
  119   111    53 1
  120   112    53 1
  121   113    19 1
  122   114    18 1
  123   115    17 1
  124   116     9 1
  125   117     2 1
  126   118    52 1
  127   119    52 1
  128   120    52 1
  129   121    51 1
  130   122    50 1
  131   123    50 1
  132   124    49 1
  133   125    49 1
  134   126    48 1
  135   127    48 1
  136   128    43 1
  137   129    43 1
  138   130    43 1
  139   131    39 1
  140   132    32 1
  141   133    31 1
  142   134    61 1
  143   135    56 1
  144   136    24 1
  145   137    24 1
  146   139   138 1
  147   140   139 1
  148   141   140 1
  149   142   140 1
  150   143   142 1
  151   144   138 1
  152   144   143 1
  153   145   144 1
  154   146   145 1
  155   147   146 1
  156   148   147 1
  157   149   148 1
  158   150   149 1
  159   151   150 1
  160   152   151 1
  161   153   152 1
  162   154   138 1
  163   155   138 1
  164   156   143 1
  165   157   147 1
  166   158   151 1
  167   160   159 1
  168   161   160 1
  169   162   161 1
  170   163   161 1
  171   164   163 1
  172   165   159 1
  173   165   164 1
  174   166   165 1
  175   167   166 1
  176   168   167 1
  177   169   168 1
  178   170   169 1
  179   171   170 1
  180   172   171 1
  181   173   172 1
  182   174   153 1
  183   174   173 1
  184   175   159 1
  185   176   159 1
  186   177   164 1
  187   178   168 1
  188   179   172 1
  189   180   179 1
  190   181   179 1
  191   182   179 1
  192   183   178 1
  193   184   178 1
  194   185   178 1
  195   186   177 1
  196   187   177 1
  197   188   177 1
  198   189   176 1
  199   190   176 1
  200   191   176 1
  201   192   175 1
  202   193   175 1
  203   194   175 1
  204   195   160 1
  205   196   160 1
  206   197   158 1
  207   198   158 1
  208   199   158 1
  209   200   157 1
  210   201   157 1
  211   202   157 1
  212   203   156 1
  213   204   156 1
  214   205   156 1
  215   206   155 1
  216   207   155 1
  217   208   155 1
  218   209   154 1
  219   210   154 1
  220   211   154 1
  221   212   141 1
  222   213   146 1
  223   214   145 1
  224   215   142 1
  225   216   142 1
  226   217   174 1
  227   218   173 1
  228   219   171 1
  229   220   170 1
  230   221   169 1
  231   222   140 1
  232   223   167 1
  233   224   166 1
  234   225   165 1
  235   226   163 1
  236   227   161 1
  237   228   139 1
  238   229   139 1
  239   230   153 1
  240   231   152 1
  241   232   150 1
  242   233   149 1
  243   234   148 1
  244   235   162 1
  245   65    153 1
  246   65    174 1
@<TRIPOS>SUBSTRUCTURE
      1 CLA               1 ****               0 ****  **** 
      2 LUT             138 ****               0 ****  **** 
