@<TRIPOS>MOLECULE
Cpptraj generated mol2 file.
  235   246     2     0     0
SMALL
USER_CHARGES


@<TRIPOS>ATOM
      1 CAA        79.3282   59.2806   33.4632 a2         1 CLA     -0.055900
      2 CAB        79.3286   61.7748   42.9922 c8         1 CLA     -0.148500
      3 CAC        72.4536   57.4239   41.7621 a2         1 CLA     -0.012600
      4 CAD        75.0717   56.7541   33.9184 ck         1 CLA      0.398800
      5 NA         78.2100   59.1343   36.8004 ns         1 CLA     -0.225500
      6 CBA        80.5352   59.2742   32.5408 a2         1 CLA     -0.135000
      7 CBB        78.4157   62.3147   43.8281 c0         1 CLA     -0.395200
      8 CBC        72.7983   55.9309   41.6744 a3         1 CLA     -0.037700
      9 CBD        76.5837   57.3649   33.8674 a1         1 CLA     -0.053900
     10 NB         77.9827   60.2180   39.6956 nm         1 CLA     -0.295700
     11 OBD        74.5357   56.0246   33.0877 o2         1 CLA     -0.494600
     12 CGA        80.9445   57.9276   31.9757 c4         1 CLA      0.827000
     13 CGD        77.4638   56.2225   33.3050 c4         1 CLA      0.655300
     14 ND         75.3453   58.2299   37.1624 nm         1 CLA     -0.291600
     15 CED        78.1641   54.0586   33.4625 a3         1 CLA      0.005400
     16 CHA        76.8726   57.9597   35.2194 cs         1 CLA     -0.123800
     17 CHB        79.8769   60.2737   38.1659 aa         1 CLA     -0.291900
     18 CHC        76.5215   60.2498   41.6536 aa         1 CLA     -0.090400
     19 CHD        73.5257   57.8062   38.7229 aa         1 CLA     -0.052000
     20 CMA        81.7252   58.5879   36.1481 a3         1 CLA     -0.230700
     21 CMB        81.2912   61.8019   40.4112 a3         1 CLA     -0.180800
     22 CMC        74.3127   59.1345   43.6146 a3         1 CLA     -0.134000
     23 CMD        72.2659   56.4867   35.9988 a3         1 CLA     -0.141100
     24 C1         82.1858   56.0360   32.5214 a2         1 CLA      0.023000
     25 C1A        78.0994   58.5712   35.5879 ac         1 CLA     -0.015100
     26 C1B        79.2313   60.4780   39.3467 cr         1 CLA      0.054700
     27 C1C        75.4476   59.5274   41.2289 cn         1 CLA     -0.005600
     28 C1D        74.1097   57.6690   37.4328 ap         1 CLA     -0.047300
     29 O1A        80.6265   57.4359   30.8656 o2         1 CLA     -0.610800
     30 O1D        78.1251   56.2598   32.3013 o2         1 CLA     -0.558200
     31 C2         82.7687   55.3403   33.7588 c8         1 CLA     -0.325100
     32 C2A        79.4276   58.5624   34.8483 a1         1 CLA      0.098600
     33 C2B        79.8822   61.1320   40.4982 cb         1 CLA      0.088500
     34 C2C        74.4174   58.9439   42.1049 cb         1 CLA      0.053700
     35 C2D        73.5597   57.0696   36.1949 cb         1 CLA      0.058900
     36 O2A        81.7102   57.3341   32.9229 o1         1 CLA     -0.437200
     37 O2D        77.3866   55.1037   34.0184 o1         1 CLA     -0.357600
     38 C3         83.5616   54.2121   33.7675 c5         1 CLA      0.031200
     39 C3A        80.4163   59.3599   35.8111 a1         1 CLA      0.166800
     40 C3B        78.9652   61.2583   41.5939 cb         1 CLA      0.035000
     41 C3C        73.5640   58.3060   41.2815 cb         1 CLA     -0.089900
     42 C3D        74.6072   57.1391   35.2899 cb         1 CLA     -0.035900
     43 C4         83.0218   52.8188   33.4640 a3         1 CLA     -0.053300
     44 C4A        79.4636   59.6206   37.0163 ac         1 CLA      0.001800
     45 C4B        77.7481   60.5884   41.0456 cn         1 CLA     -0.020900
     46 C4C        74.0611   58.3976   39.9010 cr         1 CLA     -0.044400
     47 C4D        75.6997   57.9190   35.9106 c6         1 CLA     -0.046000
     48 C5         85.0671   54.3707   33.7747 a2         1 CLA     -0.070400
     49 C6         85.6892   55.6030   34.4690 a2         1 CLA      0.043900
     50 C7         85.4072   55.5218   35.9269 a2         1 CLA     -0.150000
     51 C8         85.8808   56.6922   36.7383 a1         1 CLA      0.064200
     52 C9         87.3649   57.1126   36.5234 a3         1 CLA     -0.259300
     53 C10        85.5872   56.4935   38.2473 a2         1 CLA     -0.071900
     54 C11        84.1519   56.8261   38.7179 a2         1 CLA      0.014500
     55 C12        84.0410   56.7501   40.2353 a2         1 CLA     -0.112100
     56 C13        82.6265   57.0207   40.8687 a1         1 CLA      0.089200
     57 C14        82.1627   58.4326   40.5467 a3         1 CLA     -0.239100
     58 C15        82.5015   56.5754   42.3703 a2         1 CLA     -0.102200
     59 C16        83.2916   57.5005   43.3311 a2         1 CLA      0.023900
     60 C17        82.8598   57.1767   44.7542 a2         1 CLA     -0.105700
     61 C18        83.5771   57.9467   45.9544 a1         1 CLA      0.206800
     62 C19        83.4483   59.4831   46.0431 a3         1 CLA     -0.280100
     63 C20        82.9779   57.5069   47.3932 a3         1 CLA     -0.280100
     64 NC         75.2909   59.0410   39.9113 nx         1 CLA     -0.309200
     65 MG         76.6115   59.3207   38.3414 mg         1 CLA      0.895000
     66 HMD3       72.1023   56.0286   35.0179 dc         1 CLA      0.064300
     67 HMD2       72.1996   55.5740   36.6466 dc         1 CLA      0.064300
     68 HMD1       71.4523   57.1532   36.2625 dc         1 CLA      0.064300
     69 HMC3       75.3861   59.2028   43.9747 dc         1 CLA      0.052100
     70 HMC2       73.8214   60.0979   43.8715 dc         1 CLA      0.052100
     71 HMC1       73.8163   58.3076   44.1302 dc         1 CLA      0.052100
     72 HMB3       81.6872   62.1136   41.3835 dc         1 CLA      0.063600
     73 HMB2       81.9475   61.0458   40.0387 dc         1 CLA      0.063600
     74 HMB1       81.2346   62.6945   39.8063 dc         1 CLA      0.063600
     75 HMA3       82.2882   59.1571   36.9022 dc         1 CLA      0.058300
     76 HMA2       81.3585   57.7228   36.7000 dc         1 CLA      0.058300
     77 HMA1       82.3731   58.2358   35.3913 dc         1 CLA      0.058300
     78 HED3       78.3701   53.3698   34.2728 dc         1 CLA      0.079300
     79 HED2       77.5551   53.7110   32.6394 dc         1 CLA      0.079300
     80 HED1       79.1047   54.3126   33.0393 dc         1 CLA      0.079300
     81 HBC3       73.3684   55.7310   40.8333 dc         1 CLA      0.016300
     82 HBC2       73.6639   55.8244   42.4087 dc         1 CLA      0.016300
     83 HBC1       71.9843   55.3174   41.9910 dc         1 CLA      0.016300
     84 HBB2       78.6306   62.7193   44.8726 da         1 CLA      0.183000
     85 HBB1       77.3803   62.4988   43.5261 da         1 CLA      0.183000
     86 HBA2       80.4582   59.7946   31.5578 dc         1 CLA      0.029400
     87 HBA1       81.2704   59.8613   33.0257 dc         1 CLA      0.029400
     88 HAC2       72.2217   57.6647   42.8558 dc         1 CLA      0.029300
     89 HAC1       71.6350   57.4763   41.0694 dc         1 CLA      0.029300
     90 HAA2       78.5949   58.8871   32.7724 dc         1 CLA      0.028700
     91 HAA1       78.9768   60.3250   33.5911 dc         1 CLA      0.028700
     92 H203       83.4975   57.9964   48.1722 dc         1 CLA      0.065600
     93 H202       81.9661   57.8600   47.3604 dc         1 CLA      0.065600
     94 H201       83.0984   56.4238   47.4078 dc         1 CLA      0.065600
     95 H193       83.9723   59.8997   45.2117 dc         1 CLA      0.065600
     96 H192       82.3141   59.6715   45.9849 dc         1 CLA      0.065600
     97 H191       83.9292   59.7674   47.0238 dc         1 CLA      0.065600
     98 H172       81.8154   57.2435   45.0550 dc         1 CLA      0.027600
     99 H171       83.1198   56.1347   44.9554 dc         1 CLA      0.027600
    100 H162       84.3891   57.4180   43.3032 dc         1 CLA      0.002900
    101 H161       83.0186   58.5504   43.1388 dc         1 CLA      0.002900
    102 H152       81.4528   56.5028   42.6878 dc         1 CLA      0.029100
    103 H151       82.8927   55.6104   42.6309 dc         1 CLA      0.029100
    104 H143       82.8892   59.0978   40.9304 dc         1 CLA      0.063600
    105 H142       82.1823   58.5520   39.4413 dc         1 CLA      0.063600
    106 H141       81.1374   58.6537   40.9286 dc         1 CLA      0.063600
    107 H122       84.3478   55.7362   40.5601 dc         1 CLA      0.032500
    108 H121       84.7296   57.4882   40.7249 dc         1 CLA      0.032500
    109 H112       83.9893   57.8411   38.3206 dc         1 CLA      0.006600
    110 H111       83.4126   56.1639   38.2426 dc         1 CLA      0.006600
    111 H102       85.8950   55.4634   38.5219 dc         1 CLA      0.024100
    112 H101       86.2056   57.2642   38.7278 dc         1 CLA      0.024100
    113 HHD        72.4597   57.4479   38.6537 da         1 CLA      0.174300
    114 HHC        76.5215   60.6765   42.6627 da         1 CLA      0.136800
    115 HHB        80.9076   60.6657   38.1446 da         1 CLA      0.138300
    116 HBD        76.5548   58.1330   33.1014 dc         1 CLA      0.107700
    117 HAB        80.4052   61.7667   43.1726 da         1 CLA      0.155200
    118 H93        87.4377   57.5723   35.5564 dc         1 CLA      0.069500
    119 H92        87.5024   57.9392   37.1991 dc         1 CLA      0.069500
    120 H91        88.1136   56.3919   36.5967 dc         1 CLA      0.069500
    121 H8         85.2757   57.5553   36.4507 dc         1 CLA      0.029300
    122 H72        84.3279   55.4504   36.1065 dc         1 CLA      0.044400
    123 H71        86.0258   54.7282   36.2390 dc         1 CLA      0.044400
    124 H62        86.7437   55.6410   34.2056 dc         1 CLA      0.015600
    125 H61        85.2365   56.4853   34.0507 dc         1 CLA      0.015600
    126 H52        85.4984   53.4517   34.0591 dc         1 CLA      0.033200
    127 H51        85.3700   54.5325   32.7782 dc         1 CLA      0.033200
    128 H43        81.9302   52.8862   33.1011 dc         1 CLA      0.037000
    129 H42        83.6644   52.2574   32.7830 dc         1 CLA      0.037000
    130 H41        82.8565   52.2819   34.4035 dc         1 CLA      0.037000
    131 H3A        80.5472   60.3620   35.3357 dc         1 CLA      0.041100
    132 H2A        79.7500   57.5285   34.6522 dc         1 CLA      0.083100
    133 H2         82.3987   55.7002   34.7125 da         1 CLA      0.180900
    134 H18        84.6424   57.7343   45.9450 dc         1 CLA     -0.003900
    135 H13        81.8672   56.4007   40.2989 dc         1 CLA      0.019700
    136 H12        81.4309   55.4563   32.1736 dc         1 CLA      0.120400
    137 H11        82.9937   56.1081   31.7803 dc         1 CLA      0.120400
    138 C1         68.7253   60.7787   49.7302 Z1         2 LUT      0.509236
    139 C2         68.3348   61.6811   50.9059 Z2         2 LUT     -0.434695
    140 C3         66.9117   62.0605   51.0204 Z3         2 LUT      0.437453
    141 O3         66.6150   62.7868   52.2401 S1         2 LUT     -0.547129
    142 C4         66.5582   62.8722   49.7780 Z4         2 LUT     -0.468603
    143 C5         67.2728   62.3672   48.4952 Z5         2 LUT      0.279246
    144 C6         68.2731   61.5100   48.4285 Z6         2 LUT     -0.305473
    145 C7         69.1320   61.1991   47.3155 Z7         2 LUT      0.069402
    146 C8         69.9566   62.0329   46.6914 Z8         2 LUT     -0.191631
    147 C9         70.4692   61.8847   45.3196 Z9         2 LUT      0.196698
    148 C10        71.4578   62.7713   44.8718 Y1         2 LUT     -0.208611
    149 C11        72.0815   62.7894   43.5929 Y2         2 LUT      0.030784
    150 C12        73.2897   63.3474   43.2234 Y3         2 LUT     -0.220316
    151 C13        74.0729   63.2105   42.0005 Y4         2 LUT      0.215937
    152 C14        75.3243   63.7476   42.0274 Y5         2 LUT     -0.185793
    153 C15        76.3254   63.6982   41.0508 Y6         2 LUT     -0.057835
    154 C16        67.9775   59.4021   49.9128 Y7         2 LUT     -0.405615
    155 C17        70.1264   60.2744   49.7766 Y7         2 LUT     -0.405615
    156 C18        67.0809   63.4816   47.4718 Y9         2 LUT     -0.369639
    157 C19        69.8814   60.7234   44.5216 W1         2 LUT     -0.333362
    158 C20        73.4146   62.4802   40.8656 W2         2 LUT     -0.323439
    159 C21        87.6972   66.0718   34.4788 Z1         2 LUT      0.406104
    160 C22        88.3787   65.7943   33.1222 Z2         2 LUT     -0.404965
    161 C23        88.6231   67.0276   32.2615 Z3         2 LUT      0.391255
    162 O23        89.1972   66.5837   31.0644 S1         2 LUT     -0.528210
    163 C24        87.4088   67.8608   32.1821 W6         2 LUT     -0.258361
    164 C25        86.3352   67.7105   32.9790 Z5         2 LUT      0.133546
    165 C26        86.2507   66.6624   34.1473 W8         2 LUT     -0.147008
    166 C27        85.3709   66.9822   35.3901 Z7         2 LUT      0.023843
    167 C28        84.3048   66.3118   35.8793 Z8         2 LUT     -0.216987
    168 C29        83.4884   66.5860   37.0098 Z9         2 LUT      0.206524
    169 C30        82.5298   65.7895   37.4972 Y1         2 LUT     -0.215556
    170 C31        81.7282   65.9155   38.6356 Y2         2 LUT      0.025142
    171 C32        80.7058   65.0972   39.0466 Y3         2 LUT     -0.212209
    172 C33        79.7615   65.1436   40.1281 Y4         2 LUT      0.240937
    173 C34        78.5927   64.3488   40.1697 Y5         2 LUT     -0.218862
    174 C35        77.5416   64.2852   41.2258 Y6         2 LUT     -0.023547
    175 C36        88.5130   67.0441   35.3768 Y7         2 LUT     -0.393485
    176 C37        87.6189   64.7403   35.2433 Y7         2 LUT     -0.393485
    177 C38        85.0956   68.5405   32.7613 Y9         2 LUT     -0.387526
    178 C39        83.8195   68.0262   37.4679 W1         2 LUT     -0.322618
    179 C40        80.0058   66.2539   41.1603 W2         2 LUT     -0.358472
    180 H403       79.9153   67.2607   40.7335 R7         2 LUT      0.097720
    181 H402       79.4342   66.1273   42.0621 R7         2 LUT      0.097720
    182 H401       81.0173   66.1812   41.4831 R7         2 LUT      0.097720
    183 H393       84.8555   68.0770   37.9512 R4         2 LUT      0.082505
    184 H392       83.8508   68.7639   36.7189 R4         2 LUT      0.082505
    185 H391       83.1012   68.3758   38.1527 R4         2 LUT      0.082505
    186 H383       85.1888   69.3857   33.4479 R1         2 LUT      0.104030
    187 H382       84.7880   68.9380   31.7659 R1         2 LUT      0.104030
    188 H381       84.2122   68.0501   33.0770 R1         2 LUT      0.104030
    189 H373       86.7967   64.0689   34.9024 T4         2 LUT      0.089537
    190 H372       88.4978   64.1507   35.1967 T4         2 LUT      0.089537
    191 H371       87.4789   64.9212   36.2906 T4         2 LUT      0.089537
    192 H363       89.5051   66.6822   35.6412 T4         2 LUT      0.089537
    193 H362       88.4380   68.0262   34.8933 T4         2 LUT      0.089537
    194 H361       88.1213   67.1556   36.4176 T4         2 LUT      0.089537
    195 H222       89.3308   65.3001   33.2425 U2         2 LUT      0.127376
    196 H221       87.8124   65.1013   32.5287 U2         2 LUT      0.127376
    197 H203       74.1709   62.0993   40.1649 R7         2 LUT      0.087068
    198 H202       72.9850   61.5794   41.2297 R7         2 LUT      0.087068
    199 H201       72.7740   63.1181   40.2623 R7         2 LUT      0.087068
    200 H193       70.5938   60.2610   43.8322 R4         2 LUT      0.089716
    201 H192       69.6952   59.8750   45.1793 R4         2 LUT      0.089716
    202 H191       68.9840   60.8716   43.9867 R4         2 LUT      0.089716
    203 H183       67.3680   63.0862   46.4626 R1         2 LUT      0.094572
    204 H182       66.0490   63.8504   47.3751 R1         2 LUT      0.094572
    205 H181       67.6290   64.4030   47.7088 R1         2 LUT      0.094572
    206 H173       70.3555   59.5316   50.5645 T4         2 LUT      0.093752
    207 H172       70.5326   59.8426   48.8625 T4         2 LUT      0.093752
    208 H171       70.8464   61.1165   49.9395 T4         2 LUT      0.093752
    209 H163       68.0291   58.9359   50.9344 T4         2 LUT      0.093752
    210 H162       66.9152   59.6138   49.7579 T4         2 LUT      0.093752
    211 H161       68.2142   58.6686   49.1405 T4         2 LUT      0.093752
    212 HO3        66.3848   62.2097   52.9868 Q1         2 LUT      0.300121
    213 H8         70.0886   63.0501   47.1376 U7         2 LUT      0.080784
    214 H7         68.9349   60.2107   46.9315 U6         2 LUT      0.042190
    215 H42        65.4267   62.7589   49.6522 U5         2 LUT      0.145166
    216 H41        66.6998   63.8986   49.9679 U5         2 LUT      0.145166
    217 H35        77.8494   64.7309   42.1340 T3         2 LUT      0.077919
    218 H34        78.4113   63.7108   39.2432 T2         2 LUT      0.073626
    219 H32        80.5616   64.3918   38.2374 T1         2 LUT      0.092510
    220 H31        82.0035   66.7547   39.3583 U9         2 LUT      0.070048
    221 H30        82.3854   64.8845   36.9329 U8         2 LUT      0.085442
    222 H3         66.2315   61.2045   50.9681 U3         2 LUT     -0.031596
    223 H28        83.7352   65.4917   35.2619 U7         2 LUT      0.084728
    224 H27        85.7538   67.7051   36.0746 U6         2 LUT      0.087291
    225 H26        85.7343   65.8414   33.5623 Q6         2 LUT      0.075325
    226 H24        87.3141   68.6060   31.3920 Q5         2 LUT      0.094482
    227 H23        89.4402   67.6065   32.6847 U3         2 LUT     -0.024869
    228 H22        68.6916   61.3456   51.8564 U2         2 LUT      0.127376
    229 H21        68.9131   62.5880   50.8278 U2         2 LUT      0.127376
    230 H15        76.1897   63.3569   40.0648 T3         2 LUT      0.093200
    231 H14        75.6377   64.0832   43.0222 T2         2 LUT      0.068865
    232 H12        73.7071   63.9151   44.0402 T1         2 LUT      0.095507
    233 H11        71.4924   62.2564   42.8231 U9         2 LUT      0.068930
    234 H10        71.8021   63.5561   45.4879 U8         2 LUT      0.083911
    235 H1         88.5117   66.3427   30.4141 Q1         2 LUT      0.297311
@<TRIPOS>BOND
    1     6     1 1
    2     7     2 1
    3     8     3 1
    4     9     4 1
    5    11     4 1
    6    12     6 1
    7    13     9 1
    8    16     9 1
    9    25     5 1
   10    25    16 1
   11    26    10 1
   12    26    17 1
   13    27    18 1
   14    28    14 1
   15    28    19 1
   16    29    12 1
   17    30    13 1
   18    31    24 1
   19    32     1 1
   20    32    25 1
   21    33    21 1
   22    33    26 1
   23    34    22 1
   24    34    27 1
   25    35    23 1
   26    35    28 1
   27    36    12 1
   28    36    24 1
   29    37    13 1
   30    37    15 1
   31    38    31 1
   32    39    20 1
   33    39    32 1
   34    40     2 1
   35    40    33 1
   36    41     3 1
   37    41    34 1
   38    42     4 1
   39    42    35 1
   40    43    38 1
   41    44     5 1
   42    44    17 1
   43    44    39 1
   44    45    10 1
   45    45    18 1
   46    45    40 1
   47    46    19 1
   48    46    41 1
   49    47    14 1
   50    47    16 1
   51    47    42 1
   52    48    38 1
   53    49    48 1
   54    50    49 1
   55    51    50 1
   56    52    51 1
   57    53    51 1
   58    54    53 1
   59    55    54 1
   60    56    55 1
   61    57    56 1
   62    58    56 1
   63    59    58 1
   64    60    59 1
   65    61    60 1
   66    62    61 1
   67    63    61 1
   68    64    27 1
   69    64    46 1
   70    65     5 1
   71    65    10 1
   72    65    64 1
   73    65    14 1
   74    66    23 1
   75    67    23 1
   76    68    23 1
   77    69    22 1
   78    70    22 1
   79    71    22 1
   80    72    21 1
   81    73    21 1
   82    74    21 1
   83    75    20 1
   84    76    20 1
   85    77    20 1
   86    78    15 1
   87    79    15 1
   88    80    15 1
   89    81     8 1
   90    82     8 1
   91    83     8 1
   92    84     7 1
   93    85     7 1
   94    86     6 1
   95    87     6 1
   96    88     3 1
   97    89     3 1
   98    90     1 1
   99    91     1 1
  100    92    63 1
  101    93    63 1
  102    94    63 1
  103    95    62 1
  104    96    62 1
  105    97    62 1
  106    98    60 1
  107    99    60 1
  108   100    59 1
  109   101    59 1
  110   102    58 1
  111   103    58 1
  112   104    57 1
  113   105    57 1
  114   106    57 1
  115   107    55 1
  116   108    55 1
  117   109    54 1
  118   110    54 1
  119   111    53 1
  120   112    53 1
  121   113    19 1
  122   114    18 1
  123   115    17 1
  124   116     9 1
  125   117     2 1
  126   118    52 1
  127   119    52 1
  128   120    52 1
  129   121    51 1
  130   122    50 1
  131   123    50 1
  132   124    49 1
  133   125    49 1
  134   126    48 1
  135   127    48 1
  136   128    43 1
  137   129    43 1
  138   130    43 1
  139   131    39 1
  140   132    32 1
  141   133    31 1
  142   134    61 1
  143   135    56 1
  144   136    24 1
  145   137    24 1
  146   139   138 1
  147   140   139 1
  148   141   140 1
  149   142   140 1
  150   143   142 1
  151   144   138 1
  152   144   143 1
  153   145   144 1
  154   146   145 1
  155   147   146 1
  156   148   147 1
  157   149   148 1
  158   150   149 1
  159   151   150 1
  160   152   151 1
  161   153   152 1
  162   154   138 1
  163   155   138 1
  164   156   143 1
  165   157   147 1
  166   158   151 1
  167   160   159 1
  168   161   160 1
  169   162   161 1
  170   163   161 1
  171   164   163 1
  172   165   159 1
  173   165   164 1
  174   166   165 1
  175   167   166 1
  176   168   167 1
  177   169   168 1
  178   170   169 1
  179   171   170 1
  180   172   171 1
  181   173   172 1
  182   174   153 1
  183   174   173 1
  184   175   159 1
  185   176   159 1
  186   177   164 1
  187   178   168 1
  188   179   172 1
  189   180   179 1
  190   181   179 1
  191   182   179 1
  192   183   178 1
  193   184   178 1
  194   185   178 1
  195   186   177 1
  196   187   177 1
  197   188   177 1
  198   189   176 1
  199   190   176 1
  200   191   176 1
  201   192   175 1
  202   193   175 1
  203   194   175 1
  204   195   160 1
  205   196   160 1
  206   197   158 1
  207   198   158 1
  208   199   158 1
  209   200   157 1
  210   201   157 1
  211   202   157 1
  212   203   156 1
  213   204   156 1
  214   205   156 1
  215   206   155 1
  216   207   155 1
  217   208   155 1
  218   209   154 1
  219   210   154 1
  220   211   154 1
  221   212   141 1
  222   213   146 1
  223   214   145 1
  224   215   142 1
  225   216   142 1
  226   217   174 1
  227   218   173 1
  228   219   171 1
  229   220   170 1
  230   221   169 1
  231   222   140 1
  232   223   167 1
  233   224   166 1
  234   225   165 1
  235   226   163 1
  236   227   161 1
  237   228   139 1
  238   229   139 1
  239   230   153 1
  240   231   152 1
  241   232   150 1
  242   233   149 1
  243   234   148 1
  244   235   162 1
  245   65    153 1
  246   65    174 1
@<TRIPOS>SUBSTRUCTURE
      1 CLA               1 ****               0 ****  **** 
      2 LUT             138 ****               0 ****  **** 
