@<TRIPOS>MOLECULE
Cpptraj generated mol2 file.
  235   246     2     0     0
SMALL
USER_CHARGES


@<TRIPOS>ATOM
      1 CAA        79.9117   58.7640   33.8548 a2         1 CLA     -0.055900
      2 CAB        79.2896   62.3985   42.8267 c8         1 CLA     -0.148500
      3 CAC        72.6856   58.0320   41.9800 a2         1 CLA     -0.012600
      4 CAD        75.9514   55.6298   34.8772 ck         1 CLA      0.398800
      5 NA         78.8465   58.9106   37.2106 ns         1 CLA     -0.225500
      6 CBA        81.1894   58.8091   33.0403 a2         1 CLA     -0.135000
      7 CBB        80.4641   62.4566   43.4930 c0         1 CLA     -0.395200
      8 CBC        73.1264   56.5954   42.2829 a3         1 CLA     -0.037700
      9 CBD        77.3669   56.2690   34.5674 a1         1 CLA     -0.053900
     10 NB         78.4120   60.4988   39.7340 nm         1 CLA     -0.295700
     11 OBD        75.4597   54.7949   34.1135 o2         1 CLA     -0.494600
     12 CGA        81.7025   57.4301   32.4834 c4         1 CLA      0.827000
     13 CGD        78.4034   55.2277   34.0929 c4         1 CLA      0.655300
     14 ND         76.0648   57.9518   37.5749 nm         1 CLA     -0.291600
     15 CED        79.7697   53.3657   34.7200 a3         1 CLA      0.005400
     16 CHA        77.6737   57.3321   35.7207 cs         1 CLA     -0.123800
     17 CHB        80.4317   60.4085   38.2999 aa         1 CLA     -0.291900
     18 CHC        76.9515   60.7474   41.6416 aa         1 CLA     -0.090400
     19 CHD        74.1043   57.8223   39.1286 aa         1 CLA     -0.052000
     20 CMA        82.3064   58.1379   36.9087 a3         1 CLA     -0.230700
     21 CMB        81.4471   62.7010   40.3150 a3         1 CLA     -0.180800
     22 CMC        74.4177   59.9286   43.6962 a3         1 CLA     -0.134000
     23 CMD        73.2435   55.6528   36.8509 a3         1 CLA     -0.141100
     24 C1         83.0371   55.3909   33.1073 a2         1 CLA      0.023000
     25 C1A        78.7774   58.1478   36.0444 ac         1 CLA     -0.015100
     26 C1B        79.6913   60.8812   39.4181 cr         1 CLA      0.054700
     27 C1C        75.8123   59.9770   41.3267 cn         1 CLA     -0.005600
     28 C1D        74.7672   57.4239   37.9150 ap         1 CLA     -0.047300
     29 O1A        81.3661   56.9578   31.4402 o2         1 CLA     -0.610800
     30 O1D        79.0206   55.2231   33.0579 o2         1 CLA     -0.558200
     31 C2         83.3657   54.8211   34.4791 c8         1 CLA     -0.325100
     32 C2A        80.0875   58.1134   35.3441 a1         1 CLA      0.098600
     33 C2B        80.1762   61.8635   40.4118 cb         1 CLA      0.088500
     34 C2C        74.6302   59.5964   42.2141 cb         1 CLA      0.053700
     35 C2D        74.4287   56.4158   36.9492 cb         1 CLA      0.058900
     36 O2A        82.4417   56.6957   33.4159 o1         1 CLA     -0.437200
     37 O2D        78.6973   54.3520   35.0826 o1         1 CLA     -0.357600
     38 C3         84.4857   54.1185   34.7080 c5         1 CLA      0.031200
     39 C3A        81.0088   58.8805   36.3259 a1         1 CLA      0.166800
     40 C3B        79.2594   61.8351   41.4663 cb         1 CLA      0.035000
     41 C3C        73.8727   58.7658   41.4544 cb         1 CLA     -0.089900
     42 C3D        75.5170   56.3014   36.0640 cb         1 CLA     -0.035900
     43 C4         84.5301   52.6865   35.0512 a3         1 CLA     -0.053300
     44 C4A        80.0785   59.4003   37.3425 ac         1 CLA      0.001800
     45 C4B        78.1236   61.0277   40.9267 cn         1 CLA     -0.020900
     46 C4C        74.5641   58.6164   40.1764 cr         1 CLA     -0.044400
     47 C4D        76.4695   57.3102   36.4371 c6         1 CLA     -0.046000
     48 C5         85.8302   54.8341   34.5487 a2         1 CLA     -0.070400
     49 C6         86.1950   55.9470   35.5878 a2         1 CLA      0.043900
     50 C7         86.4218   55.3114   37.0397 a2         1 CLA     -0.150000
     51 C8         86.6378   56.3926   38.1684 a1         1 CLA      0.064200
     52 C9         87.4062   57.6708   37.7468 a3         1 CLA     -0.259300
     53 C10        87.1073   55.8128   39.4993 a2         1 CLA     -0.071900
     54 C11        87.3274   56.8008   40.6474 a2         1 CLA      0.014500
     55 C12        87.7619   56.2456   42.0208 a2         1 CLA     -0.112100
     56 C13        88.1552   57.4275   43.0110 a1         1 CLA      0.089200
     57 C14        89.7064   57.6741   43.0631 a3         1 CLA     -0.239100
     58 C15        87.7262   57.0966   44.4808 a2         1 CLA     -0.102200
     59 C16        86.2211   57.0547   44.8684 a2         1 CLA      0.023900
     60 C17        85.7916   58.4458   45.4860 a2         1 CLA     -0.105700
     61 C18        84.2452   58.6359   45.5940 a1         1 CLA      0.206800
     62 C19        83.5269   57.7305   46.6218 a3         1 CLA     -0.280100
     63 C20        83.8899   60.0883   45.9242 a3         1 CLA     -0.280100
     64 NC         75.7194   59.3135   40.1373 nx         1 CLA     -0.309200
     65 MG         77.2213   59.2991   38.6335 mg         1 CLA      0.895000
     66 HMD3       72.4221   56.2810   36.5520 dc         1 CLA      0.064300
     67 HMD2       73.4362   54.8397   36.0978 dc         1 CLA      0.064300
     68 HMD1       73.1222   55.2332   37.8606 dc         1 CLA      0.064300
     69 HMC3       73.4313   60.2953   43.7821 dc         1 CLA      0.052100
     70 HMC2       74.5479   58.9903   44.2427 dc         1 CLA      0.052100
     71 HMC1       75.2672   60.4786   43.9892 dc         1 CLA      0.052100
     72 HMB3       81.7072   63.3890   41.1190 dc         1 CLA      0.063600
     73 HMB2       82.2821   62.0475   40.3586 dc         1 CLA      0.063600
     74 HMB1       81.4854   63.2244   39.3700 dc         1 CLA      0.063600
     75 HMA3       82.0327   57.3634   37.6505 dc         1 CLA      0.058300
     76 HMA2       82.8298   57.7458   36.0982 dc         1 CLA      0.058300
     77 HMA1       82.8963   58.8232   37.3935 dc         1 CLA      0.058300
     78 HED3       80.1736   53.0337   35.6586 dc         1 CLA      0.079300
     79 HED2       79.3305   52.5725   34.1440 dc         1 CLA      0.079300
     80 HED1       80.6615   53.7568   34.2054 dc         1 CLA      0.079300
     81 HBC3       73.3814   56.0499   41.3393 dc         1 CLA      0.016300
     82 HBC2       74.0238   56.5825   42.9583 dc         1 CLA      0.016300
     83 HBC1       72.2837   56.1420   42.6935 dc         1 CLA      0.016300
     84 HBB2       80.5513   62.8797   44.5105 da         1 CLA      0.183000
     85 HBB1       81.3664   62.0269   43.0356 da         1 CLA      0.183000
     86 HBA2       81.0359   59.5122   32.1849 dc         1 CLA      0.029400
     87 HBA1       81.9796   59.1899   33.6714 dc         1 CLA      0.029400
     88 HAC2       72.3181   58.4594   42.9276 dc         1 CLA      0.029300
     89 HAC1       71.9026   58.0010   41.2625 dc         1 CLA      0.029300
     90 HAA2       79.2193   58.2287   33.1956 dc         1 CLA      0.028700
     91 HAA1       79.4840   59.7055   34.0784 dc         1 CLA      0.028700
     92 H203       82.8206   60.2258   45.9690 dc         1 CLA      0.065600
     93 H202       84.3438   60.4331   46.8653 dc         1 CLA      0.065600
     94 H201       84.2617   60.6647   45.0612 dc         1 CLA      0.065600
     95 H193       82.6453   57.4187   46.1001 dc         1 CLA      0.065600
     96 H192       84.1342   56.8641   46.8819 dc         1 CLA      0.065600
     97 H191       83.3545   58.2764   47.5520 dc         1 CLA      0.065600
     98 H172       86.3741   58.5353   46.4391 dc         1 CLA      0.027600
     99 H171       86.1217   59.1692   44.7230 dc         1 CLA      0.027600
    100 H162       85.5261   56.8820   44.0964 dc         1 CLA      0.002900
    101 H161       85.9941   56.2741   45.6492 dc         1 CLA      0.002900
    102 H152       88.1005   56.0536   44.5331 dc         1 CLA      0.029100
    103 H151       88.2125   57.7188   45.2165 dc         1 CLA      0.029100
    104 H143       89.9797   58.5125   43.7704 dc         1 CLA      0.063600
    105 H142       90.2879   56.7720   43.1689 dc         1 CLA      0.063600
    106 H141       89.9769   57.9740   42.0304 dc         1 CLA      0.063600
    107 H122       86.9013   55.6577   42.3477 dc         1 CLA      0.032500
    108 H121       88.6332   55.5905   41.9297 dc         1 CLA      0.032500
    109 H112       87.8116   57.7264   40.4620 dc         1 CLA      0.006600
    110 H111       86.3801   57.3036   41.0240 dc         1 CLA      0.006600
    111 H102       86.4184   55.0687   39.8897 dc         1 CLA      0.024100
    112 H101       87.9931   55.2832   39.3579 dc         1 CLA      0.024100
    113 HHD        73.0514   57.4881   39.2421 da         1 CLA      0.174300
    114 HHC        77.0412   61.1641   42.6363 da         1 CLA      0.136800
    115 HHB        81.4954   60.7900   38.2773 da         1 CLA      0.138300
    116 HBD        77.1673   56.8892   33.6981 dc         1 CLA      0.107700
    117 HAB        78.3775   62.7192   43.3330 da         1 CLA      0.155200
    118 H93        87.0132   58.0635   36.7871 dc         1 CLA      0.069500
    119 H92        87.4782   58.6195   38.4117 dc         1 CLA      0.069500
    120 H91        88.4073   57.4932   37.5169 dc         1 CLA      0.069500
    121 H8         85.5609   56.6069   38.2116 dc         1 CLA      0.029300
    122 H72        85.7077   54.5012   37.2746 dc         1 CLA      0.044400
    123 H71        87.3753   54.7342   37.1058 dc         1 CLA      0.044400
    124 H62        87.1019   56.4455   35.2855 dc         1 CLA      0.015600
    125 H61        85.3386   56.6337   35.6691 dc         1 CLA      0.015600
    126 H52        86.7237   54.1106   34.6186 dc         1 CLA      0.033200
    127 H51        85.8429   55.1631   33.4988 dc         1 CLA      0.033200
    128 H43        83.4964   52.3410   34.9964 dc         1 CLA      0.037000
    129 H42        85.0594   52.0699   34.3121 dc         1 CLA      0.037000
    130 H41        85.0129   52.4567   36.0075 dc         1 CLA      0.037000
    131 H3A        81.3303   59.7163   35.7534 dc         1 CLA      0.041100
    132 H2A        80.3470   57.1003   35.1545 dc         1 CLA      0.083100
    133 H2         82.8530   55.1916   35.3561 da         1 CLA      0.180900
    134 H18        83.8069   58.3517   44.6010 dc         1 CLA     -0.003900
    135 H13        87.5459   58.2627   42.7676 dc         1 CLA      0.019700
    136 H12        82.2999   54.8168   32.5118 dc         1 CLA      0.120400
    137 H11        83.9503   55.4581   32.5013 dc         1 CLA      0.120400
    138 C1         69.1876   61.6373   49.1793 Z1         2 LUT      0.509236
    139 C2         67.7516   61.4072   49.7654 Z2         2 LUT     -0.434695
    140 C3         66.8292   62.5705   50.1017 Z3         2 LUT      0.437453
    141 O3         66.7002   62.7464   51.5513 S1         2 LUT     -0.547129
    142 C4         67.4223   63.8138   49.5538 Z4         2 LUT     -0.468603
    143 C5         68.1384   63.7371   48.2783 Z5         2 LUT      0.279246
    144 C6         69.0033   62.7176   48.0887 Z6         2 LUT     -0.305473
    145 C7         69.5449   62.3688   46.7652 Z7         2 LUT      0.069402
    146 C8         70.7438   62.7903   46.2426 Z8         2 LUT     -0.191631
    147 C9         71.4050   62.5246   44.9600 Z9         2 LUT      0.196698
    148 C10        72.4768   63.3149   44.5457 Y1         2 LUT     -0.208611
    149 C11        73.3249   63.1470   43.3625 Y2         2 LUT      0.030784
    150 C12        74.3001   64.0402   42.9285 Y3         2 LUT     -0.220316
    151 C13        75.2197   63.9942   41.7392 Y4         2 LUT      0.215937
    152 C14        76.3306   64.8336   41.8174 Y5         2 LUT     -0.185793
    153 C15        77.4460   64.8154   40.9561 Y6         2 LUT     -0.057835
    154 C16        69.8107   60.2631   48.7480 Y7         2 LUT     -0.405615
    155 C17        69.9628   62.0932   50.4207 Y7         2 LUT     -0.405615
    156 C18        67.6264   64.6707   47.2518 Y9         2 LUT     -0.369639
    157 C19        70.8689   61.4042   44.1244 W1         2 LUT     -0.333362
    158 C20        74.7802   63.2362   40.5473 W2         2 LUT     -0.323439
    159 C21        88.9096   65.6557   34.9356 Z1         2 LUT      0.406104
    160 C22        89.5045   64.9647   33.7037 Z2         2 LUT     -0.404965
    161 C23        89.7600   65.8514   32.5274 Z3         2 LUT      0.391255
    162 O23        90.1321   64.9856   31.5154 S1         2 LUT     -0.528210
    163 C24        88.5242   66.5756   32.1833 W6         2 LUT     -0.258361
    164 C25        87.5078   66.8490   33.0371 Z5         2 LUT      0.133546
    165 C26        87.4322   66.2102   34.4618 W8         2 LUT     -0.147008
    166 C27        86.6525   66.9773   35.4936 Z7         2 LUT      0.023843
    167 C28        85.4156   66.5693   35.9659 Z8         2 LUT     -0.216987
    168 C29        84.6395   67.0855   37.1002 Z9         2 LUT      0.206524
    169 C30        83.6270   66.3817   37.6450 Y1         2 LUT     -0.215556
    170 C31        82.7655   66.7547   38.7516 Y2         2 LUT      0.025142
    171 C32        81.6872   66.1264   39.1326 Y3         2 LUT     -0.212209
    172 C33        80.7727   66.3882   40.2194 Y4         2 LUT      0.240937
    173 C34        79.6614   65.5827   40.2786 Y5         2 LUT     -0.218862
    174 C35        78.5323   65.5958   41.2244 Y6         2 LUT     -0.023547
    175 C36        90.0442   66.7301   35.4166 Y7         2 LUT     -0.393485
    176 C37        88.8196   64.6335   36.0882 Y7         2 LUT     -0.393485
    177 C38        86.2580   67.6288   32.5609 Y9         2 LUT     -0.387526
    178 C39        85.2318   68.3478   37.6960 W1         2 LUT     -0.322618
    179 C40        81.0053   67.4340   41.2271 W2         2 LUT     -0.358472
    180 H403       82.0319   67.4308   41.5320 R7         2 LUT      0.097720
    181 H402       80.7790   68.4310   40.8349 R7         2 LUT      0.097720
    182 H401       80.4048   67.4233   42.1130 R7         2 LUT      0.097720
    183 H393       86.2911   68.2115   38.0801 R4         2 LUT      0.082505
    184 H392       85.3666   69.1380   36.9984 R4         2 LUT      0.082505
    185 H391       84.7386   68.6976   38.5999 R4         2 LUT      0.082505
    186 H383       86.4635   68.3374   31.7115 R1         2 LUT      0.104030
    187 H382       85.4080   66.9121   32.3028 R1         2 LUT      0.104030
    188 H381       85.9631   68.3084   33.3840 R1         2 LUT      0.104030
    189 H373       89.8845   64.2411   36.2812 T4         2 LUT      0.089537
    190 H372       88.3289   64.9593   37.0190 T4         2 LUT      0.089537
    191 H371       88.2413   63.6934   35.8132 T4         2 LUT      0.089537
    192 H363       90.1721   67.6298   34.7982 T4         2 LUT      0.089537
    193 H362       89.8073   66.9959   36.3838 T4         2 LUT      0.089537
    194 H361       91.0305   66.2499   35.6050 T4         2 LUT      0.089537
    195 H222       90.4809   64.5639   34.0548 U2         2 LUT      0.127376
    196 H221       88.7594   64.2397   33.3065 U2         2 LUT      0.127376
    197 H203       74.2034   62.3543   40.9534 R7         2 LUT      0.087068
    198 H202       74.0572   63.6448   39.8595 R7         2 LUT      0.087068
    199 H201       75.5541   62.8316   39.9617 R7         2 LUT      0.087068
    200 H193       71.1185   61.4941   43.0825 R4         2 LUT      0.089716
    201 H192       71.2570   60.4477   44.4808 R4         2 LUT      0.089716
    202 H191       69.7832   61.3648   44.1075 R4         2 LUT      0.089716
    203 H183       68.0637   65.6610   47.3753 R1         2 LUT      0.094572
    204 H182       67.9604   64.1891   46.2587 R1         2 LUT      0.094572
    205 H181       66.5249   64.6641   47.2712 R1         2 LUT      0.094572
    206 H173       69.8056   63.0270   50.8850 T4         2 LUT      0.093752
    207 H172       69.7562   61.4355   51.2804 T4         2 LUT      0.093752
    208 H171       71.0883   62.0559   50.2847 T4         2 LUT      0.093752
    209 H163       70.8567   60.2493   48.5343 T4         2 LUT      0.093752
    210 H162       69.6164   59.4736   49.5459 T4         2 LUT      0.093752
    211 H161       69.4475   59.8696   47.7942 T4         2 LUT      0.093752
    212 HO3        65.8584   62.3121   51.7774 Q1         2 LUT      0.300121
    213 H8         71.3193   63.3636   46.9050 U7         2 LUT      0.080784
    214 H7         68.9805   61.7925   46.1020 U6         2 LUT      0.042190
    215 H42        66.5468   64.4591   49.4442 U5         2 LUT      0.145166
    216 H41        68.0407   64.3740   50.3288 U5         2 LUT      0.145166
    217 H35        78.6441   66.1338   42.1398 T3         2 LUT      0.077919
    218 H34        79.5519   64.9800   39.4699 T2         2 LUT      0.073626
    219 H32        81.4187   65.3541   38.4321 T1         2 LUT      0.092510
    220 H31        82.9301   67.6515   39.3839 U9         2 LUT      0.070048
    221 H30        83.2726   65.4740   37.1588 U8         2 LUT      0.085442
    222 H3         65.8467   62.4064   49.5585 U3         2 LUT     -0.031596
    223 H28        84.8386   65.7792   35.4945 U7         2 LUT      0.084728
    224 H27        87.0920   67.8284   35.8724 U6         2 LUT      0.087291
    225 H26        86.8234   65.3754   33.9617 Q6         2 LUT      0.075325
    226 H24        88.4179   66.9810   31.1025 Q5         2 LUT      0.094482
    227 H23        90.6482   66.5566   32.7573 U3         2 LUT     -0.024869
    228 H22        67.1456   60.9071   49.0481 U2         2 LUT      0.127376
    229 H21        67.7382   60.7455   50.6328 U2         2 LUT      0.127376
    230 H15        77.5165   64.2485   40.0215 T3         2 LUT      0.093200
    231 H14        76.4002   65.4403   42.7292 T2         2 LUT      0.068865
    232 H12        74.5287   64.8418   43.5577 T1         2 LUT      0.095507
    233 H11        73.2551   62.1922   42.7900 U9         2 LUT      0.068930
    234 H10        72.7953   64.0753   45.1878 U8         2 LUT      0.083911
    235 H1         90.4059   65.4000   30.6975 Q1         2 LUT      0.297311
@<TRIPOS>BOND
    1     6     1 1
    2     7     2 1
    3     8     3 1
    4     9     4 1
    5    11     4 1
    6    12     6 1
    7    13     9 1
    8    16     9 1
    9    25     5 1
   10    25    16 1
   11    26    10 1
   12    26    17 1
   13    27    18 1
   14    28    14 1
   15    28    19 1
   16    29    12 1
   17    30    13 1
   18    31    24 1
   19    32     1 1
   20    32    25 1
   21    33    21 1
   22    33    26 1
   23    34    22 1
   24    34    27 1
   25    35    23 1
   26    35    28 1
   27    36    12 1
   28    36    24 1
   29    37    13 1
   30    37    15 1
   31    38    31 1
   32    39    20 1
   33    39    32 1
   34    40     2 1
   35    40    33 1
   36    41     3 1
   37    41    34 1
   38    42     4 1
   39    42    35 1
   40    43    38 1
   41    44     5 1
   42    44    17 1
   43    44    39 1
   44    45    10 1
   45    45    18 1
   46    45    40 1
   47    46    19 1
   48    46    41 1
   49    47    14 1
   50    47    16 1
   51    47    42 1
   52    48    38 1
   53    49    48 1
   54    50    49 1
   55    51    50 1
   56    52    51 1
   57    53    51 1
   58    54    53 1
   59    55    54 1
   60    56    55 1
   61    57    56 1
   62    58    56 1
   63    59    58 1
   64    60    59 1
   65    61    60 1
   66    62    61 1
   67    63    61 1
   68    64    27 1
   69    64    46 1
   70    65     5 1
   71    65    10 1
   72    65    64 1
   73    65    14 1
   74    66    23 1
   75    67    23 1
   76    68    23 1
   77    69    22 1
   78    70    22 1
   79    71    22 1
   80    72    21 1
   81    73    21 1
   82    74    21 1
   83    75    20 1
   84    76    20 1
   85    77    20 1
   86    78    15 1
   87    79    15 1
   88    80    15 1
   89    81     8 1
   90    82     8 1
   91    83     8 1
   92    84     7 1
   93    85     7 1
   94    86     6 1
   95    87     6 1
   96    88     3 1
   97    89     3 1
   98    90     1 1
   99    91     1 1
  100    92    63 1
  101    93    63 1
  102    94    63 1
  103    95    62 1
  104    96    62 1
  105    97    62 1
  106    98    60 1
  107    99    60 1
  108   100    59 1
  109   101    59 1
  110   102    58 1
  111   103    58 1
  112   104    57 1
  113   105    57 1
  114   106    57 1
  115   107    55 1
  116   108    55 1
  117   109    54 1
  118   110    54 1
  119   111    53 1
  120   112    53 1
  121   113    19 1
  122   114    18 1
  123   115    17 1
  124   116     9 1
  125   117     2 1
  126   118    52 1
  127   119    52 1
  128   120    52 1
  129   121    51 1
  130   122    50 1
  131   123    50 1
  132   124    49 1
  133   125    49 1
  134   126    48 1
  135   127    48 1
  136   128    43 1
  137   129    43 1
  138   130    43 1
  139   131    39 1
  140   132    32 1
  141   133    31 1
  142   134    61 1
  143   135    56 1
  144   136    24 1
  145   137    24 1
  146   139   138 1
  147   140   139 1
  148   141   140 1
  149   142   140 1
  150   143   142 1
  151   144   138 1
  152   144   143 1
  153   145   144 1
  154   146   145 1
  155   147   146 1
  156   148   147 1
  157   149   148 1
  158   150   149 1
  159   151   150 1
  160   152   151 1
  161   153   152 1
  162   154   138 1
  163   155   138 1
  164   156   143 1
  165   157   147 1
  166   158   151 1
  167   160   159 1
  168   161   160 1
  169   162   161 1
  170   163   161 1
  171   164   163 1
  172   165   159 1
  173   165   164 1
  174   166   165 1
  175   167   166 1
  176   168   167 1
  177   169   168 1
  178   170   169 1
  179   171   170 1
  180   172   171 1
  181   173   172 1
  182   174   153 1
  183   174   173 1
  184   175   159 1
  185   176   159 1
  186   177   164 1
  187   178   168 1
  188   179   172 1
  189   180   179 1
  190   181   179 1
  191   182   179 1
  192   183   178 1
  193   184   178 1
  194   185   178 1
  195   186   177 1
  196   187   177 1
  197   188   177 1
  198   189   176 1
  199   190   176 1
  200   191   176 1
  201   192   175 1
  202   193   175 1
  203   194   175 1
  204   195   160 1
  205   196   160 1
  206   197   158 1
  207   198   158 1
  208   199   158 1
  209   200   157 1
  210   201   157 1
  211   202   157 1
  212   203   156 1
  213   204   156 1
  214   205   156 1
  215   206   155 1
  216   207   155 1
  217   208   155 1
  218   209   154 1
  219   210   154 1
  220   211   154 1
  221   212   141 1
  222   213   146 1
  223   214   145 1
  224   215   142 1
  225   216   142 1
  226   217   174 1
  227   218   173 1
  228   219   171 1
  229   220   170 1
  230   221   169 1
  231   222   140 1
  232   223   167 1
  233   224   166 1
  234   225   165 1
  235   226   163 1
  236   227   161 1
  237   228   139 1
  238   229   139 1
  239   230   153 1
  240   231   152 1
  241   232   150 1
  242   233   149 1
  243   234   148 1
  244   235   162 1
  245   65    153 1
  246   65    174 1
@<TRIPOS>SUBSTRUCTURE
      1 CLA               1 ****               0 ****  **** 
      2 LUT             138 ****               0 ****  **** 
