@<TRIPOS>MOLECULE
Cpptraj generated mol2 file.
  235   246     2     0     0
SMALL
USER_CHARGES


@<TRIPOS>ATOM
      1 CAA        79.3104   59.2851   34.3088 a2         1 CLA     -0.055900
      2 CAB        79.3875   62.4811   43.2811 c8         1 CLA     -0.148500
      3 CAC        72.4411   58.6189   42.7571 a2         1 CLA     -0.012600
      4 CAD        74.7535   57.2261   34.9447 ck         1 CLA      0.398800
      5 NA         78.3128   59.1606   37.7020 ns         1 CLA     -0.225500
      6 CBA        80.5756   59.2182   33.5438 a2         1 CLA     -0.135000
      7 CBB        80.5253   62.3615   44.0187 c0         1 CLA     -0.395200
      8 CBC        72.3527   57.0431   42.7050 a3         1 CLA     -0.037700
      9 CBD        76.3447   57.5078   34.8515 a1         1 CLA     -0.053900
     10 NB         78.2120   60.5172   40.2920 nm         1 CLA     -0.295700
     11 OBD        74.0959   56.9234   33.9838 o2         1 CLA     -0.494600
     12 CGA        80.9721   57.8516   32.8979 c4         1 CLA      0.827000
     13 CGD        77.1993   56.2968   34.3152 c4         1 CLA      0.655300
     14 ND         75.4280   58.4695   38.1830 nm         1 CLA     -0.291600
     15 CED        77.5623   53.9374   34.3774 a3         1 CLA      0.005400
     16 CHA        76.7950   57.9660   36.2317 cs         1 CLA     -0.123800
     17 CHB        80.1333   60.2556   38.8070 aa         1 CLA     -0.291900
     18 CHC        76.9066   60.9621   42.2625 aa         1 CLA     -0.090400
     19 CHD        73.5664   58.5079   39.7684 aa         1 CLA     -0.052000
     20 CMA        81.3821   57.7777   37.0637 a3         1 CLA     -0.230700
     21 CMB        81.7109   61.9543   40.8260 a3         1 CLA     -0.180800
     22 CMC        74.5424   60.7739   44.2343 a3         1 CLA     -0.134000
     23 CMD        71.9959   57.3459   37.1730 a3         1 CLA     -0.141100
     24 C1         82.1079   55.8052   33.2404 a2         1 CLA      0.023000
     25 C1A        78.0558   58.5579   36.4575 ac         1 CLA     -0.015100
     26 C1B        79.4939   60.7807   39.9104 cr         1 CLA      0.054700
     27 C1C        75.7612   60.2974   41.9801 cn         1 CLA     -0.005600
     28 C1D        74.1288   58.1773   38.5044 ap         1 CLA     -0.047300
     29 O1A        80.6370   57.5302   31.7725 o2         1 CLA     -0.610800
     30 O1D        78.1161   56.4383   33.5105 o2         1 CLA     -0.558200
     31 C2         82.9116   55.1373   34.3355 c8         1 CLA     -0.325100
     32 C2A        79.3523   58.4558   35.6174 a1         1 CLA      0.098600
     33 C2B        80.1865   61.5732   40.9161 cb         1 CLA      0.088500
     34 C2C        74.6938   60.0355   42.9380 cb         1 CLA      0.053700
     35 C2D        73.4275   57.6805   37.3275 cb         1 CLA      0.058900
     36 O2A        81.7016   57.0496   33.7638 o1         1 CLA     -0.437200
     37 O2D        76.8690   55.1134   34.8588 o1         1 CLA     -0.357600
     38 C3         84.0563   54.4218   34.2445 c5         1 CLA      0.031200
     39 C3A        80.4629   58.9205   36.6091 a1         1 CLA      0.166800
     40 C3B        79.2486   61.8185   41.9140 cb         1 CLA      0.035000
     41 C3C        73.7683   59.2023   42.2118 cb         1 CLA     -0.089900
     42 C3D        74.4566   57.5444   36.3481 cb         1 CLA     -0.035900
     43 C4         84.1815   52.9597   33.9188 a3         1 CLA     -0.053300
     44 C4A        79.5703   59.5439   37.7440 ac         1 CLA      0.001800
     45 C4B        78.0225   61.1411   41.4932 cn         1 CLA     -0.020900
     46 C4C        74.2842   59.0715   40.8876 cr         1 CLA     -0.044400
     47 C4D        75.6551   58.0285   36.9878 c6         1 CLA     -0.046000
     48 C5         85.3841   55.1372   34.4565 a2         1 CLA     -0.070400
     49 C6         85.3410   56.3823   35.4159 a2         1 CLA      0.043900
     50 C7         85.0117   55.9600   36.8844 a2         1 CLA     -0.150000
     51 C8         85.2433   57.0757   37.9724 a1         1 CLA      0.064200
     52 C9         86.7015   57.5220   38.2792 a3         1 CLA     -0.259300
     53 C10        84.5922   56.7118   39.3198 a2         1 CLA     -0.071900
     54 C11        84.2316   57.8820   40.3723 a2         1 CLA      0.014500
     55 C12        83.6998   57.3444   41.7052 a2         1 CLA     -0.112100
     56 C13        83.0764   58.3637   42.7647 a1         1 CLA      0.089200
     57 C14        83.9633   59.5892   43.1059 a3         1 CLA     -0.239100
     58 C15        82.7468   57.6159   44.1386 a2         1 CLA     -0.102200
     59 C16        81.6330   56.5538   44.1198 a2         1 CLA      0.023900
     60 C17        80.2158   57.0549   43.7404 a2         1 CLA     -0.105700
     61 C18        79.4798   57.7770   44.8936 a1         1 CLA      0.206800
     62 C19        78.2668   58.6143   44.3419 a3         1 CLA     -0.280100
     63 C20        79.0787   56.7745   46.0126 a3         1 CLA     -0.280100
     64 NC         75.5466   59.6371   40.8460 nx         1 CLA     -0.309200
     65 MG         76.8670   59.5740   39.2004 mg         1 CLA      0.895000
     66 HMD3       71.4981   58.1397   37.8125 dc         1 CLA      0.064300
     67 HMD2       71.6077   57.1960   36.1571 dc         1 CLA      0.064300
     68 HMD1       71.6171   56.4524   37.7023 dc         1 CLA      0.064300
     69 HMC3       75.2438   60.3387   44.9827 dc         1 CLA      0.052100
     70 HMC2       74.7225   61.8357   44.1526 dc         1 CLA      0.052100
     71 HMC1       73.5297   60.6644   44.5742 dc         1 CLA      0.052100
     72 HMB3       82.3926   61.1756   41.2669 dc         1 CLA      0.063600
     73 HMB2       82.1885   62.4290   39.9626 dc         1 CLA      0.063600
     74 HMB1       81.8150   62.7872   41.5027 dc         1 CLA      0.063600
     75 HMA3       80.8296   56.8940   37.3287 dc         1 CLA      0.058300
     76 HMA2       81.9763   57.3704   36.2426 dc         1 CLA      0.058300
     77 HMA1       81.9785   58.0447   37.9836 dc         1 CLA      0.058300
     78 HED3       77.0625   53.0947   34.9187 dc         1 CLA      0.079300
     79 HED2       77.3628   53.7878   33.3517 dc         1 CLA      0.079300
     80 HED1       78.6578   54.0424   34.6320 dc         1 CLA      0.079300
     81 HBC3       71.8658   56.7555   41.7077 dc         1 CLA      0.016300
     82 HBC2       73.3643   56.5801   42.9003 dc         1 CLA      0.016300
     83 HBC1       71.6757   56.6305   43.4716 dc         1 CLA      0.016300
     84 HBB2       80.6873   62.9219   44.9079 da         1 CLA      0.183000
     85 HBB1       81.3876   61.7860   43.6066 da         1 CLA      0.183000
     86 HBA2       80.4995   59.9310   32.6754 dc         1 CLA      0.029400
     87 HBA1       81.4473   59.5668   34.1724 dc         1 CLA      0.029400
     88 HAC2       72.4061   58.8377   43.7913 dc         1 CLA      0.029300
     89 HAC1       71.5700   59.0350   42.2784 dc         1 CLA      0.029300
     90 HAA2       78.6187   58.8161   33.6514 dc         1 CLA      0.028700
     91 HAA1       78.9928   60.3515   34.4545 dc         1 CLA      0.028700
     92 H203       78.4556   56.0116   45.6579 dc         1 CLA      0.065600
     93 H202       80.0280   56.2524   46.3428 dc         1 CLA      0.065600
     94 H201       78.5408   57.2931   46.8163 dc         1 CLA      0.065600
     95 H193       77.7362   59.0943   45.1422 dc         1 CLA      0.065600
     96 H192       78.6096   59.3491   43.6272 dc         1 CLA      0.065600
     97 H191       77.6296   57.8751   43.8469 dc         1 CLA      0.065600
     98 H172       80.2786   57.7450   42.9263 dc         1 CLA      0.027600
     99 H171       79.6376   56.2020   43.4188 dc         1 CLA      0.027600
    100 H162       81.8458   55.8319   43.3227 dc         1 CLA      0.002900
    101 H161       81.6741   55.8814   44.9641 dc         1 CLA      0.002900
    102 H152       83.7060   57.1279   44.3211 dc         1 CLA      0.029100
    103 H151       82.5608   58.3260   44.9629 dc         1 CLA      0.029100
    104 H143       83.4525   60.2817   43.7979 dc         1 CLA      0.063600
    105 H142       84.9810   59.2295   43.5037 dc         1 CLA      0.063600
    106 H141       84.1858   60.1447   42.1402 dc         1 CLA      0.063600
    107 H122       82.8502   56.7245   41.3488 dc         1 CLA      0.032500
    108 H121       84.3813   56.6735   42.1355 dc         1 CLA      0.032500
    109 H112       85.1129   58.4941   40.7297 dc         1 CLA      0.006600
    110 H111       83.6315   58.6093   39.8382 dc         1 CLA      0.006600
    111 H102       83.6764   56.1980   39.0516 dc         1 CLA      0.024100
    112 H101       85.2650   56.0220   39.9035 dc         1 CLA      0.024100
    113 HHD        72.5274   58.1239   39.9751 da         1 CLA      0.174300
    114 HHC        76.9748   61.3471   43.2415 da         1 CLA      0.136800
    115 HHB        81.2201   60.4792   38.6536 da         1 CLA      0.138300
    116 HBD        76.4098   58.3175   34.1324 dc         1 CLA      0.107700
    117 HAB        78.5361   63.1810   43.5774 da         1 CLA      0.155200
    118 H93        86.7189   58.3133   38.9850 dc         1 CLA      0.069500
    119 H92        87.3240   56.6448   38.5805 dc         1 CLA      0.069500
    120 H91        87.1390   57.7737   37.3817 dc         1 CLA      0.069500
    121 H8         84.6702   57.9276   37.5753 dc         1 CLA      0.029300
    122 H72        84.0017   55.5680   36.9518 dc         1 CLA      0.044400
    123 H71        85.6123   55.0854   37.1018 dc         1 CLA      0.044400
    124 H62        86.3174   56.9271   35.5586 dc         1 CLA      0.015600
    125 H61        84.5414   57.1052   35.1741 dc         1 CLA      0.015600
    126 H52        86.0162   54.3613   34.8938 dc         1 CLA      0.033200
    127 H51        85.7697   55.4000   33.4804 dc         1 CLA      0.033200
    128 H43        84.4875   52.4371   34.8277 dc         1 CLA      0.037000
    129 H42        83.2031   52.6903   33.6680 dc         1 CLA      0.037000
    130 H41        84.7196   52.8709   32.9955 dc         1 CLA      0.037000
    131 H3A        81.0382   59.8163   36.2150 dc         1 CLA      0.041100
    132 H2A        79.5184   57.3931   35.3867 dc         1 CLA      0.083100
    133 H2         82.4600   55.1532   35.3629 da         1 CLA      0.180900
    134 H18        80.2121   58.4963   45.3380 dc         1 CLA     -0.003900
    135 H13        82.1702   58.7695   42.3473 dc         1 CLA      0.019700
    136 H12        81.2758   55.0872   32.9999 dc         1 CLA      0.120400
    137 H11        82.7716   55.8806   32.3494 dc         1 CLA      0.120400
    138 C1         68.9555   61.7991   50.5588 Z1         2 LUT      0.509236
    139 C2         67.4572   61.6600   51.0966 Z2         2 LUT     -0.434695
    140 C3         66.7798   62.9982   51.3713 Z3         2 LUT      0.437453
    141 O3         66.6108   63.2803   52.7638 S1         2 LUT     -0.547129
    142 C4         67.3939   64.2104   50.7022 Z4         2 LUT     -0.468603
    143 C5         68.0030   63.8270   49.3978 Z5         2 LUT      0.279246
    144 C6         68.8815   62.7967   49.3562 Z6         2 LUT     -0.305473
    145 C7         69.3854   62.3667   47.9997 Z7         2 LUT      0.069402
    146 C8         70.4393   62.9407   47.3889 Z8         2 LUT     -0.191631
    147 C9         70.6923   62.6696   45.9164 Z9         2 LUT      0.196698
    148 C10        71.7228   63.4444   45.3735 Y1         2 LUT     -0.208611
    149 C11        72.3645   63.4388   44.0828 Y2         2 LUT      0.030784
    150 C12        73.6005   64.0506   43.8355 Y3         2 LUT     -0.220316
    151 C13        74.4393   64.2941   42.6216 Y4         2 LUT      0.215937
    152 C14        75.6549   64.8885   42.7404 Y5         2 LUT     -0.185793
    153 C15        76.6452   64.9123   41.7337 Y6         2 LUT     -0.057835
    154 C16        69.4711   60.4219   50.1809 Y7         2 LUT     -0.405615
    155 C17        69.9029   62.3291   51.5868 Y7         2 LUT     -0.405615
    156 C18        67.4040   64.5213   48.2157 Y9         2 LUT     -0.369639
    157 C19        69.9594   61.6343   45.1475 W1         2 LUT     -0.333362
    158 C20        73.8888   63.5487   41.4062 W2         2 LUT     -0.323439
    159 C21        87.8121   65.9597   34.6327 Z1         2 LUT      0.406104
    160 C22        88.3892   65.4574   33.3290 Z2         2 LUT     -0.404965
    161 C23        88.4851   66.3721   32.0676 Z3         2 LUT      0.391255
    162 O23        88.6865   65.4813   31.0031 S1         2 LUT     -0.528210
    163 C24        87.2041   67.2227   32.0479 W6         2 LUT     -0.258361
    164 C25        86.2209   67.2359   32.9891 Z5         2 LUT      0.133546
    165 C26        86.3364   66.3850   34.2766 W8         2 LUT     -0.147008
    166 C27        85.4914   66.9552   35.4463 Z7         2 LUT      0.023843
    167 C28        84.3416   66.5184   35.9806 Z8         2 LUT     -0.216987
    168 C29        83.8362   66.8604   37.3058 Z9         2 LUT      0.206524
    169 C30        82.7251   66.2162   37.7431 Y1         2 LUT     -0.215556
    170 C31        82.0546   66.3495   39.0325 Y2         2 LUT      0.025142
    171 C32        80.8174   65.8157   39.3526 Y3         2 LUT     -0.212209
    172 C33        80.0569   66.0447   40.5788 Y4         2 LUT      0.240937
    173 C34        78.8509   65.2827   40.7114 Y5         2 LUT     -0.218862
    174 C35        77.9159   65.3157   41.7732 Y6         2 LUT     -0.023547
    175 C36        88.6279   67.0883   35.3227 Y7         2 LUT     -0.393485
    176 C37        87.9064   64.8733   35.6965 Y7         2 LUT     -0.393485
    177 C38        84.9572   68.0707   32.8965 Y9         2 LUT     -0.387526
    178 C39        84.5701   67.9138   38.1745 W1         2 LUT     -0.322618
    179 C40        80.3498   67.0719   41.6065 W2         2 LUT     -0.358472
    180 H403       79.6944   67.9592   41.5025 R7         2 LUT      0.097720
    181 H402       80.2095   66.8410   42.6675 R7         2 LUT      0.097720
    182 H401       81.2995   67.5844   41.5487 R7         2 LUT      0.097720
    183 H393       84.0881   68.1263   39.1576 R4         2 LUT      0.082505
    184 H392       85.5625   67.5739   38.5647 R4         2 LUT      0.082505
    185 H391       84.7916   68.7868   37.7176 R4         2 LUT      0.082505
    186 H383       84.9418   68.6826   32.0240 R1         2 LUT      0.104030
    187 H382       84.1282   67.3949   32.8540 R1         2 LUT      0.104030
    188 H381       84.7989   68.7031   33.8151 R1         2 LUT      0.104030
    189 H373       87.3772   63.9298   35.4591 T4         2 LUT      0.089537
    190 H372       88.9343   64.5654   35.8038 T4         2 LUT      0.089537
    191 H371       87.5262   65.2074   36.6184 T4         2 LUT      0.089537
    192 H363       88.6679   67.9448   34.5951 T4         2 LUT      0.089537
    193 H362       88.1736   67.3753   36.2482 T4         2 LUT      0.089537
    194 H361       89.6182   66.8187   35.6076 T4         2 LUT      0.089537
    195 H222       89.3640   64.9930   33.5230 U2         2 LUT      0.127376
    196 H221       87.7135   64.6544   32.9955 U2         2 LUT      0.127376
    197 H203       73.9320   62.4970   41.5504 R7         2 LUT      0.087068
    198 H202       72.8191   63.8022   41.2212 R7         2 LUT      0.087068
    199 H201       74.2781   63.8207   40.4294 R7         2 LUT      0.087068
    200 H193       70.2732   61.6806   44.1611 R4         2 LUT      0.089716
    201 H192       70.1792   60.7038   45.6040 R4         2 LUT      0.089716
    202 H191       68.8822   61.7351   45.1483 R4         2 LUT      0.089716
    203 H183       67.4310   65.5906   48.4525 R1         2 LUT      0.094572
    204 H182       67.8698   64.0487   47.3073 R1         2 LUT      0.094572
    205 H181       66.3531   64.3247   48.1840 R1         2 LUT      0.094572
    206 H173       69.7588   63.3633   51.8722 T4         2 LUT      0.093752
    207 H172       69.9214   61.7916   52.5403 T4         2 LUT      0.093752
    208 H171       70.9235   62.3156   51.2213 T4         2 LUT      0.093752
    209 H163       68.9300   59.9834   49.3194 T4         2 LUT      0.093752
    210 H162       70.5279   60.2975   49.8947 T4         2 LUT      0.093752
    211 H161       69.2251   59.7334   50.9843 T4         2 LUT      0.093752
    212 HO3        67.2496   62.9447   53.3812 Q1         2 LUT      0.300121
    213 H8         70.9548   63.8078   47.8400 U7         2 LUT      0.080784
    214 H7         68.7158   61.7082   47.4497 U6         2 LUT      0.042190
    215 H42        66.7158   65.0930   50.7098 U5         2 LUT      0.145166
    216 H41        68.2980   64.5820   51.2007 U5         2 LUT      0.145166
    217 H35        78.3431   65.8053   42.6453 T3         2 LUT      0.077919
    218 H34        78.6059   64.6239   39.8483 T2         2 LUT      0.073626
    219 H32        80.3494   65.0670   38.5631 T1         2 LUT      0.092510
    220 H31        82.4085   67.0440   39.7566 U9         2 LUT      0.070048
    221 H30        82.3094   65.5043   37.0011 U8         2 LUT      0.085442
    222 H3         65.7872   62.9176   50.9433 U3         2 LUT     -0.031596
    223 H28        83.9154   65.7379   35.4839 U7         2 LUT      0.084728
    224 H27        86.0340   67.6809   35.9566 U6         2 LUT      0.087291
    225 H26        85.8043   65.3619   33.9565 Q6         2 LUT      0.075325
    226 H24        87.2487   67.8841   31.2376 Q5         2 LUT      0.094482
    227 H23        89.3279   67.0480   32.3367 U3         2 LUT     -0.024869
    228 H22        66.9180   61.2221   50.1972 U2         2 LUT      0.127376
    229 H21        67.3185   61.0446   51.9967 U2         2 LUT      0.127376
    230 H15        76.4413   64.5555   40.7428 T3         2 LUT      0.093200
    231 H14        75.9728   65.1197   43.7491 T2         2 LUT      0.068865
    232 H12        74.1075   64.4550   44.7468 T1         2 LUT      0.095507
    233 H11        71.9542   62.8631   43.3179 U9         2 LUT      0.068930
    234 H10        72.1830   64.0576   46.1394 U8         2 LUT      0.083911
    235 H1         88.9471   66.0048   30.2167 Q1         2 LUT      0.297311
@<TRIPOS>BOND
    1     6     1 1
    2     7     2 1
    3     8     3 1
    4     9     4 1
    5    11     4 1
    6    12     6 1
    7    13     9 1
    8    16     9 1
    9    25     5 1
   10    25    16 1
   11    26    10 1
   12    26    17 1
   13    27    18 1
   14    28    14 1
   15    28    19 1
   16    29    12 1
   17    30    13 1
   18    31    24 1
   19    32     1 1
   20    32    25 1
   21    33    21 1
   22    33    26 1
   23    34    22 1
   24    34    27 1
   25    35    23 1
   26    35    28 1
   27    36    12 1
   28    36    24 1
   29    37    13 1
   30    37    15 1
   31    38    31 1
   32    39    20 1
   33    39    32 1
   34    40     2 1
   35    40    33 1
   36    41     3 1
   37    41    34 1
   38    42     4 1
   39    42    35 1
   40    43    38 1
   41    44     5 1
   42    44    17 1
   43    44    39 1
   44    45    10 1
   45    45    18 1
   46    45    40 1
   47    46    19 1
   48    46    41 1
   49    47    14 1
   50    47    16 1
   51    47    42 1
   52    48    38 1
   53    49    48 1
   54    50    49 1
   55    51    50 1
   56    52    51 1
   57    53    51 1
   58    54    53 1
   59    55    54 1
   60    56    55 1
   61    57    56 1
   62    58    56 1
   63    59    58 1
   64    60    59 1
   65    61    60 1
   66    62    61 1
   67    63    61 1
   68    64    27 1
   69    64    46 1
   70    65     5 1
   71    65    10 1
   72    65    64 1
   73    65    14 1
   74    66    23 1
   75    67    23 1
   76    68    23 1
   77    69    22 1
   78    70    22 1
   79    71    22 1
   80    72    21 1
   81    73    21 1
   82    74    21 1
   83    75    20 1
   84    76    20 1
   85    77    20 1
   86    78    15 1
   87    79    15 1
   88    80    15 1
   89    81     8 1
   90    82     8 1
   91    83     8 1
   92    84     7 1
   93    85     7 1
   94    86     6 1
   95    87     6 1
   96    88     3 1
   97    89     3 1
   98    90     1 1
   99    91     1 1
  100    92    63 1
  101    93    63 1
  102    94    63 1
  103    95    62 1
  104    96    62 1
  105    97    62 1
  106    98    60 1
  107    99    60 1
  108   100    59 1
  109   101    59 1
  110   102    58 1
  111   103    58 1
  112   104    57 1
  113   105    57 1
  114   106    57 1
  115   107    55 1
  116   108    55 1
  117   109    54 1
  118   110    54 1
  119   111    53 1
  120   112    53 1
  121   113    19 1
  122   114    18 1
  123   115    17 1
  124   116     9 1
  125   117     2 1
  126   118    52 1
  127   119    52 1
  128   120    52 1
  129   121    51 1
  130   122    50 1
  131   123    50 1
  132   124    49 1
  133   125    49 1
  134   126    48 1
  135   127    48 1
  136   128    43 1
  137   129    43 1
  138   130    43 1
  139   131    39 1
  140   132    32 1
  141   133    31 1
  142   134    61 1
  143   135    56 1
  144   136    24 1
  145   137    24 1
  146   139   138 1
  147   140   139 1
  148   141   140 1
  149   142   140 1
  150   143   142 1
  151   144   138 1
  152   144   143 1
  153   145   144 1
  154   146   145 1
  155   147   146 1
  156   148   147 1
  157   149   148 1
  158   150   149 1
  159   151   150 1
  160   152   151 1
  161   153   152 1
  162   154   138 1
  163   155   138 1
  164   156   143 1
  165   157   147 1
  166   158   151 1
  167   160   159 1
  168   161   160 1
  169   162   161 1
  170   163   161 1
  171   164   163 1
  172   165   159 1
  173   165   164 1
  174   166   165 1
  175   167   166 1
  176   168   167 1
  177   169   168 1
  178   170   169 1
  179   171   170 1
  180   172   171 1
  181   173   172 1
  182   174   153 1
  183   174   173 1
  184   175   159 1
  185   176   159 1
  186   177   164 1
  187   178   168 1
  188   179   172 1
  189   180   179 1
  190   181   179 1
  191   182   179 1
  192   183   178 1
  193   184   178 1
  194   185   178 1
  195   186   177 1
  196   187   177 1
  197   188   177 1
  198   189   176 1
  199   190   176 1
  200   191   176 1
  201   192   175 1
  202   193   175 1
  203   194   175 1
  204   195   160 1
  205   196   160 1
  206   197   158 1
  207   198   158 1
  208   199   158 1
  209   200   157 1
  210   201   157 1
  211   202   157 1
  212   203   156 1
  213   204   156 1
  214   205   156 1
  215   206   155 1
  216   207   155 1
  217   208   155 1
  218   209   154 1
  219   210   154 1
  220   211   154 1
  221   212   141 1
  222   213   146 1
  223   214   145 1
  224   215   142 1
  225   216   142 1
  226   217   174 1
  227   218   173 1
  228   219   171 1
  229   220   170 1
  230   221   169 1
  231   222   140 1
  232   223   167 1
  233   224   166 1
  234   225   165 1
  235   226   163 1
  236   227   161 1
  237   228   139 1
  238   229   139 1
  239   230   153 1
  240   231   152 1
  241   232   150 1
  242   233   149 1
  243   234   148 1
  244   235   162 1
  245   65    153 1
  246   65    174 1
@<TRIPOS>SUBSTRUCTURE
      1 CLA               1 ****               0 ****  **** 
      2 LUT             138 ****               0 ****  **** 
