@<TRIPOS>MOLECULE
Cpptraj generated mol2 file.
  235   246     2     0     0
SMALL
USER_CHARGES


@<TRIPOS>ATOM
      1 CAA        77.0015   57.9214   33.6913 a2         1 CLA     -0.055900
      2 CAB        77.3206   60.9595   42.9014 c8         1 CLA     -0.148500
      3 CAC        70.2329   57.1254   42.1959 a2         1 CLA     -0.012600
      4 CAD        72.8556   55.2774   34.8142 ck         1 CLA      0.398800
      5 NA         75.9621   58.3276   37.1105 ns         1 CLA     -0.225500
      6 CBA        78.2803   57.7237   32.8558 a2         1 CLA     -0.135000
      7 CBB        78.4153   60.4390   43.4469 c0         1 CLA     -0.395200
      8 CBC        70.2860   55.6343   42.3600 a3         1 CLA     -0.037700
      9 CBD        74.3735   55.7626   34.5256 a1         1 CLA     -0.053900
     10 NB         75.9154   59.6191   39.7514 nm         1 CLA     -0.295700
     11 OBD        72.1834   54.4930   34.1391 o2         1 CLA     -0.494600
     12 CGA        78.7578   56.2459   32.6566 c4         1 CLA      0.827000
     13 CGD        75.2450   54.6129   34.2451 c4         1 CLA      0.655300
     14 ND         73.2376   57.3744   37.6657 nm         1 CLA     -0.291600
     15 CED        76.0737   52.5747   35.1125 a3         1 CLA      0.005400
     16 CHA        74.7185   56.7563   35.7045 cs         1 CLA     -0.123800
     17 CHB        77.7141   59.6242   38.1349 aa         1 CLA     -0.291900
     18 CHC        74.5251   59.7371   41.8567 aa         1 CLA     -0.090400
     19 CHD        71.3771   57.0838   39.2320 aa         1 CLA     -0.052000
     20 CMA        79.3489   57.3983   36.5957 a3         1 CLA     -0.230700
     21 CMB        79.2542   61.1276   40.2666 a3         1 CLA     -0.180800
     22 CMC        72.2132   58.9912   43.8655 a3         1 CLA     -0.134000
     23 CMD        70.0916   55.3510   37.0233 a3         1 CLA     -0.141100
     24 C1         79.8767   54.3807   33.6287 a2         1 CLA      0.023000
     25 C1A        75.8617   57.4744   36.0066 ac         1 CLA     -0.015100
     26 C1B        77.1330   60.0075   39.3278 cr         1 CLA      0.054700
     27 C1C        73.4032   59.0094   41.4877 cn         1 CLA     -0.005600
     28 C1D        72.0189   56.8947   38.0058 ap         1 CLA     -0.047300
     29 O1A        78.5063   55.5009   31.6995 o2         1 CLA     -0.610800
     30 O1D        76.2047   54.6362   33.4540 o2         1 CLA     -0.558200
     31 C2         80.4371   53.8984   34.9241 c8         1 CLA     -0.325100
     32 C2A        77.1349   57.4068   35.1807 a1         1 CLA      0.098600
     33 C2B        77.8410   60.6084   40.4387 cb         1 CLA      0.088500
     34 C2C        72.3487   58.5866   42.4028 cb         1 CLA      0.053700
     35 C2D        71.4082   56.0188   36.9966 cb         1 CLA      0.058900
     36 O2A        79.5860   55.7996   33.6338 o1         1 CLA     -0.437200
     37 O2D        75.0185   53.5797   35.1275 o1         1 CLA     -0.357600
     38 C3         81.1257   52.7094   35.0652 c5         1 CLA      0.031200
     39 C3A        78.1402   58.2512   36.0849 a1         1 CLA      0.166800
     40 C3B        76.9399   60.6068   41.5306 cb         1 CLA      0.035000
     41 C3C        71.4679   57.7930   41.6498 cb         1 CLA     -0.089900
     42 C3D        72.4604   55.9311   36.0488 cb         1 CLA     -0.035900
     43 C4         80.3813   51.3751   35.1181 a3         1 CLA     -0.053300
     44 C4A        77.2051   58.7441   37.1834 ac         1 CLA      0.001800
     45 C4B        75.7278   59.9821   41.0805 cn         1 CLA     -0.020900
     46 C4C        71.9929   57.7473   40.3386 cr         1 CLA     -0.044400
     47 C4D        73.5591   56.7080   36.5365 c6         1 CLA     -0.046000
     48 C5         82.5644   52.6188   34.9928 a2         1 CLA     -0.070400
     49 C6         83.2830   54.0105   35.1831 a2         1 CLA      0.043900
     50 C7         83.2279   54.2913   36.7222 a2         1 CLA     -0.150000
     51 C8         83.5964   55.7108   37.2098 a1         1 CLA      0.064200
     52 C9         85.0302   56.1070   36.8029 a3         1 CLA     -0.259300
     53 C10        83.5293   55.9305   38.7544 a2         1 CLA     -0.071900
     54 C11        82.1580   55.6981   39.3765 a2         1 CLA      0.014500
     55 C12        82.2272   56.1188   40.8903 a2         1 CLA     -0.112100
     56 C13        80.9023   56.3219   41.6979 a1         1 CLA      0.089200
     57 C14        79.7873   57.1206   41.0287 a3         1 CLA     -0.239100
     58 C15        81.3846   56.9346   43.0979 a2         1 CLA     -0.102200
     59 C16        82.1978   58.1932   43.0842 a2         1 CLA      0.023900
     60 C17        82.4050   58.5452   44.5732 a2         1 CLA     -0.105700
     61 C18        83.0250   59.9427   44.9433 a1         1 CLA      0.206800
     62 C19        84.5236   59.9492   44.6554 a3         1 CLA     -0.280100
     63 C20        82.2343   61.1392   44.4019 a3         1 CLA     -0.280100
     64 NC         73.1564   58.3593   40.3222 nx         1 CLA     -0.309200
     65 MG         74.5092   58.6143   38.6675 mg         1 CLA      0.895000
     66 HMD3       69.8985   54.8127   37.8388 dc         1 CLA      0.064300
     67 HMD2       69.3395   56.1160   36.9496 dc         1 CLA      0.064300
     68 HMD1       69.9353   54.5678   36.2465 dc         1 CLA      0.064300
     69 HMC3       72.2250   57.9925   44.3441 dc         1 CLA      0.052100
     70 HMC2       72.9669   59.6993   44.3128 dc         1 CLA      0.052100
     71 HMC1       71.1886   59.4013   44.0605 dc         1 CLA      0.052100
     72 HMB3       79.5034   61.8480   41.1264 dc         1 CLA      0.063600
     73 HMB2       79.9544   60.3347   40.4616 dc         1 CLA      0.063600
     74 HMB1       79.3911   61.5385   39.2929 dc         1 CLA      0.063600
     75 HMA3       78.9575   56.5670   37.1790 dc         1 CLA      0.058300
     76 HMA2       79.9220   57.2290   35.6938 dc         1 CLA      0.058300
     77 HMA1       79.8592   58.0420   37.2931 dc         1 CLA      0.058300
     78 HED3       75.8655   51.7437   35.7373 dc         1 CLA      0.079300
     79 HED2       76.0867   52.1411   34.0387 dc         1 CLA      0.079300
     80 HED1       76.9831   52.9724   35.4442 dc         1 CLA      0.079300
     81 HBC3       70.9935   55.3897   43.1235 dc         1 CLA      0.016300
     82 HBC2       69.3035   55.2140   42.6522 dc         1 CLA      0.016300
     83 HBC1       70.6250   55.1703   41.4206 dc         1 CLA      0.016300
     84 HBB2       78.6522   60.5669   44.5500 da         1 CLA      0.183000
     85 HBB1       79.0985   59.7889   42.9077 da         1 CLA      0.183000
     86 HBA2       78.0936   58.2542   31.9175 dc         1 CLA      0.029400
     87 HBA1       79.0803   58.2826   33.2956 dc         1 CLA      0.029400
     88 HAC2       69.8957   57.5690   43.1468 dc         1 CLA      0.029300
     89 HAC1       69.4031   57.3329   41.4844 dc         1 CLA      0.029300
     90 HAA2       76.1809   57.5546   33.1299 dc         1 CLA      0.028700
     91 HAA1       76.7417   58.9732   33.7057 dc         1 CLA      0.028700
     92 H203       82.7955   62.0736   44.3082 dc         1 CLA      0.065600
     93 H202       81.8740   60.9214   43.4591 dc         1 CLA      0.065600
     94 H201       81.3733   61.4382   45.0745 dc         1 CLA      0.065600
     95 H193       84.5878   59.9803   43.5941 dc         1 CLA      0.065600
     96 H192       85.0526   60.8632   44.9913 dc         1 CLA      0.065600
     97 H191       85.0887   59.0906   45.1380 dc         1 CLA      0.065600
     98 H172       81.4752   58.4702   45.1109 dc         1 CLA      0.027600
     99 H171       83.0243   57.8376   45.1136 dc         1 CLA      0.027600
    100 H162       83.1864   57.9975   42.6942 dc         1 CLA      0.002900
    101 H161       81.6869   58.9999   42.4653 dc         1 CLA      0.002900
    102 H152       80.4580   57.0557   43.6833 dc         1 CLA      0.029100
    103 H151       81.9219   56.1149   43.5569 dc         1 CLA      0.029100
    104 H143       79.0260   57.3849   41.7628 dc         1 CLA      0.063600
    105 H142       80.0383   58.1082   40.6566 dc         1 CLA      0.063600
    106 H141       79.2833   56.5783   40.2356 dc         1 CLA      0.063600
    107 H122       82.9538   55.5376   41.4953 dc         1 CLA      0.032500
    108 H121       82.6951   57.1775   40.7994 dc         1 CLA      0.032500
    109 H112       81.4092   56.3120   38.8915 dc         1 CLA      0.006600
    110 H111       81.8484   54.6257   39.3375 dc         1 CLA      0.006600
    111 H102       84.2586   55.2680   39.2072 dc         1 CLA      0.024100
    112 H101       83.8536   56.9411   38.9462 dc         1 CLA      0.024100
    113 HHD        70.3939   56.6170   39.3958 da         1 CLA      0.174300
    114 HHC        74.4378   60.2652   42.8508 da         1 CLA      0.136800
    115 HHB        78.6922   59.8924   37.8235 da         1 CLA      0.138300
    116 HBD        74.3847   56.3382   33.6008 dc         1 CLA      0.107700
    117 HAB        76.6198   61.4950   43.5280 da         1 CLA      0.155200
    118 H93        85.2684   56.0055   35.6911 dc         1 CLA      0.069500
    119 H92        85.3389   57.1274   37.1401 dc         1 CLA      0.069500
    120 H91        85.6745   55.4112   37.2954 dc         1 CLA      0.069500
    121 H8         82.8837   56.4437   36.6980 dc         1 CLA      0.029300
    122 H72        82.1637   54.3087   37.1159 dc         1 CLA      0.044400
    123 H71        83.7586   53.5330   37.2495 dc         1 CLA      0.044400
    124 H62        84.2666   54.0841   34.8060 dc         1 CLA      0.015600
    125 H61        82.6966   54.8070   34.8060 dc         1 CLA      0.015600
    126 H52        82.8990   51.9336   35.7310 dc         1 CLA      0.033200
    127 H51        82.7615   52.1803   34.0038 dc         1 CLA      0.033200
    128 H43        79.3489   51.5055   35.4308 dc         1 CLA      0.037000
    129 H42        80.4903   50.8849   34.1865 dc         1 CLA      0.037000
    130 H41        80.7413   50.7009   35.8835 dc         1 CLA      0.037000
    131 H3A        78.4501   59.1171   35.5369 dc         1 CLA      0.041100
    132 H2A        77.5078   56.3437   35.1611 dc         1 CLA      0.083100
    133 H2         80.3262   54.5071   35.7642 da         1 CLA      0.180900
    134 H18        83.0153   60.0672   46.0452 dc         1 CLA     -0.003900
    135 H13        80.4853   55.3442   41.8625 dc         1 CLA      0.019700
    136 H12        78.9245   53.8146   33.6205 dc         1 CLA      0.120400
    137 H11        80.6277   54.2167   32.8607 dc         1 CLA      0.120400
    138 C1         67.0804   61.1419   49.8054 Z1         2 LUT      0.509236
    139 C2         67.2311   62.2769   50.8479 Z2         2 LUT     -0.434695
    140 C3         66.0868   63.3261   51.0159 Z3         2 LUT      0.437453
    141 O3         66.6734   64.6051   51.3162 S1         2 LUT     -0.547129
    142 C4         65.2444   63.4223   49.6391 Z4         2 LUT     -0.468603
    143 C5         65.8524   62.7386   48.4116 Z5         2 LUT      0.279246
    144 C6         66.6822   61.6720   48.4391 Z6         2 LUT     -0.305473
    145 C7         67.4586   61.2463   47.2671 Z7         2 LUT      0.069402
    146 C8         68.2005   62.0563   46.4503 Z8         2 LUT     -0.191631
    147 C9         68.7500   61.5997   45.1669 Z9         2 LUT      0.196698
    148 C10        69.7582   62.3297   44.5919 Y1         2 LUT     -0.208611
    149 C11        70.5265   62.1492   43.3536 Y2         2 LUT      0.030784
    150 C12        71.6871   62.7726   43.0463 Y3         2 LUT     -0.220316
    151 C13        72.4880   62.4953   41.8899 Y4         2 LUT      0.215937
    152 C14        73.7337   63.1354   41.8480 Y5         2 LUT     -0.185793
    153 C15        74.5954   63.1205   40.6764 Y6         2 LUT     -0.057835
    154 C16        65.8385   60.3470   50.2422 Y7         2 LUT     -0.405615
    155 C17        68.2434   60.1613   49.8961 Y7         2 LUT     -0.405615
    156 C18        65.4968   63.5315   47.1677 Y9         2 LUT     -0.369639
    157 C19        68.1833   60.3351   44.5175 W1         2 LUT     -0.333362
    158 C20        71.6673   62.0266   40.6995 W2         2 LUT     -0.323439
    159 C21        85.8550   64.4154   34.2998 Z1         2 LUT      0.406104
    160 C22        86.4515   63.7716   33.0108 Z2         2 LUT     -0.404965
    161 C23        86.6675   64.7448   31.8688 Z3         2 LUT      0.391255
    162 O23        87.1272   63.8866   30.8313 S1         2 LUT     -0.528210
    163 C24        85.3354   65.4340   31.5133 W6         2 LUT     -0.258361
    164 C25        84.3428   65.6311   32.4089 Z5         2 LUT      0.133546
    165 C26        84.4260   64.8099   33.7194 W8         2 LUT     -0.147008
    166 C27        83.6504   65.4647   34.8088 Z7         2 LUT      0.023843
    167 C28        82.6200   64.8977   35.5297 Z8         2 LUT     -0.216987
    168 C29        81.8939   65.3236   36.6786 Z9         2 LUT      0.206524
    169 C30        80.7990   64.6676   37.1278 Y1         2 LUT     -0.215556
    170 C31        80.0055   64.7968   38.3357 Y2         2 LUT      0.025142
    171 C32        78.7078   64.3710   38.5195 Y3         2 LUT     -0.212209
    172 C33        77.9354   64.4673   39.7766 Y4         2 LUT      0.240937
    173 C34        76.7064   63.8082   39.8271 Y5         2 LUT     -0.218862
    174 C35        75.7835   63.7508   40.7951 Y6         2 LUT     -0.023547
    175 C36        86.6648   65.6578   34.8038 Y7         2 LUT     -0.393485
    176 C37        85.8570   63.3604   35.4065 Y7         2 LUT     -0.393485
    177 C38        83.0133   66.3704   32.0688 Y9         2 LUT     -0.387526
    178 C39        82.5711   66.2341   37.6710 W1         2 LUT     -0.322618
    179 C40        78.4057   65.3416   40.9443 W2         2 LUT     -0.358472
    180 H403       79.4283   65.2105   41.1956 R7         2 LUT      0.097720
    181 H402       78.2897   66.3521   40.6565 R7         2 LUT      0.097720
    182 H401       77.8769   65.2718   41.8850 R7         2 LUT      0.097720
    183 H393       83.5919   66.4833   37.3353 R4         2 LUT      0.082505
    184 H392       82.0613   67.2130   37.7643 R4         2 LUT      0.082505
    185 H391       82.6615   65.7938   38.7109 R4         2 LUT      0.082505
    186 H383       83.1591   67.1750   31.2637 R1         2 LUT      0.104030
    187 H382       82.2668   65.6438   31.6237 R1         2 LUT      0.104030
    188 H381       82.5599   66.7914   32.9670 R1         2 LUT      0.104030
    189 H373       85.2699   62.4586   35.2113 T4         2 LUT      0.089537
    190 H372       86.8762   63.0662   35.5792 T4         2 LUT      0.089537
    191 H371       85.5064   63.7188   36.3881 T4         2 LUT      0.089537
    192 H363       86.8110   66.3109   34.0124 T4         2 LUT      0.089537
    193 H362       86.2356   66.1611   35.7083 T4         2 LUT      0.089537
    194 H361       87.6896   65.3109   35.1947 T4         2 LUT      0.089537
    195 H222       87.5024   63.4042   33.1669 U2         2 LUT      0.127376
    196 H221       85.8267   62.9389   32.5841 U2         2 LUT      0.127376
    197 H203       71.6563   60.9062   40.5884 R7         2 LUT      0.087068
    198 H202       70.5718   62.2799   40.6506 R7         2 LUT      0.087068
    199 H201       72.0443   62.4093   39.7842 R7         2 LUT      0.087068
    200 H193       68.3485   59.4625   45.0958 R4         2 LUT      0.089716
    201 H192       67.1265   60.4161   44.3800 R4         2 LUT      0.089716
    202 H191       68.5637   60.1898   43.5022 R4         2 LUT      0.089716
    203 H183       65.6739   62.9727   46.2607 R1         2 LUT      0.094572
    204 H182       64.4076   63.7340   47.1013 R1         2 LUT      0.094572
    205 H181       66.0772   64.4729   47.1384 R1         2 LUT      0.094572
    206 H173       69.1865   60.5631   49.5662 T4         2 LUT      0.093752
    207 H172       68.3526   59.8190   50.9752 T4         2 LUT      0.093752
    208 H171       67.9538   59.2673   49.3156 T4         2 LUT      0.093752
    209 H163       65.8421   60.1786   51.3473 T4         2 LUT      0.093752
    210 H162       64.8730   60.8502   50.0008 T4         2 LUT      0.093752
    211 H161       65.8702   59.3740   49.7773 T4         2 LUT      0.093752
    212 HO3        66.0812   65.2522   51.8106 Q1         2 LUT      0.300121
    213 H8         68.3729   63.1055   46.7296 U7         2 LUT      0.080784
    214 H7         67.1111   60.2317   47.0826 U6         2 LUT      0.042190
    215 H42        64.1585   63.0635   49.7602 U5         2 LUT      0.145166
    216 H41        65.1292   64.4732   49.4949 U5         2 LUT      0.145166
    217 H35        76.1547   64.2149   41.7495 T3         2 LUT      0.077919
    218 H34        76.3474   63.3802   38.8436 T2         2 LUT      0.073626
    219 H32        78.3212   63.7821   37.6879 T1         2 LUT      0.092510
    220 H31        80.3434   65.3629   39.2048 U9         2 LUT      0.070048
    221 H30        80.4053   63.9611   36.3782 U8         2 LUT      0.085442
    222 H3         65.3125   62.9899   51.7697 U3         2 LUT     -0.031596
    223 H28        82.3472   63.8999   35.2616 U7         2 LUT      0.084728
    224 H27        83.9680   66.4419   35.0386 U6         2 LUT      0.087291
    225 H26        84.0395   63.7756   33.4447 Q6         2 LUT      0.075325
    226 H24        85.3110   66.0825   30.5714 Q5         2 LUT      0.094482
    227 H23        87.4556   65.3622   32.2747 U3         2 LUT     -0.024869
    228 H22        67.4932   61.9956   51.8850 U2         2 LUT      0.127376
    229 H21        68.1092   62.8715   50.5597 U2         2 LUT      0.127376
    230 H15        74.2078   62.5950   39.7802 T3         2 LUT      0.093200
    231 H14        74.0949   63.7601   42.6954 T2         2 LUT      0.068865
    232 H12        72.0481   63.4963   43.6667 T1         2 LUT      0.095507
    233 H11        70.2701   61.3611   42.6934 U9         2 LUT      0.068930
    234 H10        69.9648   63.2762   45.1699 U8         2 LUT      0.083911
    235 H1         87.4787   64.3488   30.0276 Q1         2 LUT      0.297311
@<TRIPOS>BOND
    1     6     1 1
    2     7     2 1
    3     8     3 1
    4     9     4 1
    5    11     4 1
    6    12     6 1
    7    13     9 1
    8    16     9 1
    9    25     5 1
   10    25    16 1
   11    26    10 1
   12    26    17 1
   13    27    18 1
   14    28    14 1
   15    28    19 1
   16    29    12 1
   17    30    13 1
   18    31    24 1
   19    32     1 1
   20    32    25 1
   21    33    21 1
   22    33    26 1
   23    34    22 1
   24    34    27 1
   25    35    23 1
   26    35    28 1
   27    36    12 1
   28    36    24 1
   29    37    13 1
   30    37    15 1
   31    38    31 1
   32    39    20 1
   33    39    32 1
   34    40     2 1
   35    40    33 1
   36    41     3 1
   37    41    34 1
   38    42     4 1
   39    42    35 1
   40    43    38 1
   41    44     5 1
   42    44    17 1
   43    44    39 1
   44    45    10 1
   45    45    18 1
   46    45    40 1
   47    46    19 1
   48    46    41 1
   49    47    14 1
   50    47    16 1
   51    47    42 1
   52    48    38 1
   53    49    48 1
   54    50    49 1
   55    51    50 1
   56    52    51 1
   57    53    51 1
   58    54    53 1
   59    55    54 1
   60    56    55 1
   61    57    56 1
   62    58    56 1
   63    59    58 1
   64    60    59 1
   65    61    60 1
   66    62    61 1
   67    63    61 1
   68    64    27 1
   69    64    46 1
   70    65     5 1
   71    65    10 1
   72    65    64 1
   73    65    14 1
   74    66    23 1
   75    67    23 1
   76    68    23 1
   77    69    22 1
   78    70    22 1
   79    71    22 1
   80    72    21 1
   81    73    21 1
   82    74    21 1
   83    75    20 1
   84    76    20 1
   85    77    20 1
   86    78    15 1
   87    79    15 1
   88    80    15 1
   89    81     8 1
   90    82     8 1
   91    83     8 1
   92    84     7 1
   93    85     7 1
   94    86     6 1
   95    87     6 1
   96    88     3 1
   97    89     3 1
   98    90     1 1
   99    91     1 1
  100    92    63 1
  101    93    63 1
  102    94    63 1
  103    95    62 1
  104    96    62 1
  105    97    62 1
  106    98    60 1
  107    99    60 1
  108   100    59 1
  109   101    59 1
  110   102    58 1
  111   103    58 1
  112   104    57 1
  113   105    57 1
  114   106    57 1
  115   107    55 1
  116   108    55 1
  117   109    54 1
  118   110    54 1
  119   111    53 1
  120   112    53 1
  121   113    19 1
  122   114    18 1
  123   115    17 1
  124   116     9 1
  125   117     2 1
  126   118    52 1
  127   119    52 1
  128   120    52 1
  129   121    51 1
  130   122    50 1
  131   123    50 1
  132   124    49 1
  133   125    49 1
  134   126    48 1
  135   127    48 1
  136   128    43 1
  137   129    43 1
  138   130    43 1
  139   131    39 1
  140   132    32 1
  141   133    31 1
  142   134    61 1
  143   135    56 1
  144   136    24 1
  145   137    24 1
  146   139   138 1
  147   140   139 1
  148   141   140 1
  149   142   140 1
  150   143   142 1
  151   144   138 1
  152   144   143 1
  153   145   144 1
  154   146   145 1
  155   147   146 1
  156   148   147 1
  157   149   148 1
  158   150   149 1
  159   151   150 1
  160   152   151 1
  161   153   152 1
  162   154   138 1
  163   155   138 1
  164   156   143 1
  165   157   147 1
  166   158   151 1
  167   160   159 1
  168   161   160 1
  169   162   161 1
  170   163   161 1
  171   164   163 1
  172   165   159 1
  173   165   164 1
  174   166   165 1
  175   167   166 1
  176   168   167 1
  177   169   168 1
  178   170   169 1
  179   171   170 1
  180   172   171 1
  181   173   172 1
  182   174   153 1
  183   174   173 1
  184   175   159 1
  185   176   159 1
  186   177   164 1
  187   178   168 1
  188   179   172 1
  189   180   179 1
  190   181   179 1
  191   182   179 1
  192   183   178 1
  193   184   178 1
  194   185   178 1
  195   186   177 1
  196   187   177 1
  197   188   177 1
  198   189   176 1
  199   190   176 1
  200   191   176 1
  201   192   175 1
  202   193   175 1
  203   194   175 1
  204   195   160 1
  205   196   160 1
  206   197   158 1
  207   198   158 1
  208   199   158 1
  209   200   157 1
  210   201   157 1
  211   202   157 1
  212   203   156 1
  213   204   156 1
  214   205   156 1
  215   206   155 1
  216   207   155 1
  217   208   155 1
  218   209   154 1
  219   210   154 1
  220   211   154 1
  221   212   141 1
  222   213   146 1
  223   214   145 1
  224   215   142 1
  225   216   142 1
  226   217   174 1
  227   218   173 1
  228   219   171 1
  229   220   170 1
  230   221   169 1
  231   222   140 1
  232   223   167 1
  233   224   166 1
  234   225   165 1
  235   226   163 1
  236   227   161 1
  237   228   139 1
  238   229   139 1
  239   230   153 1
  240   231   152 1
  241   232   150 1
  242   233   149 1
  243   234   148 1
  244   235   162 1
  245   65    153 1
  246   65    174 1
@<TRIPOS>SUBSTRUCTURE
      1 CLA               1 ****               0 ****  **** 
      2 LUT             138 ****               0 ****  **** 
