@<TRIPOS>MOLECULE
Cpptraj generated mol2 file.
  235   246     2     0     0
SMALL
USER_CHARGES


@<TRIPOS>ATOM
      1 CAA        79.7405   58.2140   34.4493 a2         1 CLA     -0.055900
      2 CAB        79.4561   62.3272   43.4473 c8         1 CLA     -0.148500
      3 CAC        72.7328   58.1084   43.0701 a2         1 CLA     -0.012600
      4 CAD        75.3533   55.6786   35.8516 ck         1 CLA      0.398800
      5 NA         78.5675   58.7539   37.8943 ns         1 CLA     -0.225500
      6 CBA        81.0080   57.9322   33.7374 a2         1 CLA     -0.135000
      7 CBB        80.6037   62.5101   44.1584 c0         1 CLA     -0.395200
      8 CBC        72.7187   56.6231   43.1507 a3         1 CLA     -0.037700
      9 CBD        76.8771   56.2487   35.5304 a1         1 CLA     -0.053900
     10 NB         78.4744   60.1219   40.6362 nm         1 CLA     -0.295700
     11 OBD        74.7611   54.8097   35.1777 o2         1 CLA     -0.494600
     12 CGA        81.2729   56.4426   33.5033 c4         1 CLA      0.827000
     13 CGD        77.7522   55.0822   35.5716 c4         1 CLA      0.655300
     14 ND         75.8147   57.9001   38.5955 nm         1 CLA     -0.291600
     15 CED        78.2677   53.1083   36.7607 a3         1 CLA      0.005400
     16 CHA        77.2504   57.2175   36.6236 cs         1 CLA     -0.123800
     17 CHB        80.3201   60.1655   38.9397 aa         1 CLA     -0.291900
     18 CHC        77.1953   60.4864   42.6463 aa         1 CLA     -0.090400
     19 CHD        73.8821   57.8573   40.1703 aa         1 CLA     -0.052000
     20 CMA        82.0532   58.2540   37.2549 a3         1 CLA     -0.230700
     21 CMB        81.5536   62.3445   40.8484 a3         1 CLA     -0.180800
     22 CMC        74.8580   59.9240   44.6911 a3         1 CLA     -0.134000
     23 CMD        72.7219   55.8143   38.0949 a3         1 CLA     -0.141100
     24 C1         82.3488   54.4385   34.2678 a2         1 CLA      0.023000
     25 C1A        78.4505   57.8850   36.8120 ac         1 CLA     -0.015100
     26 C1B        79.7049   60.5436   40.1517 cr         1 CLA      0.054700
     27 C1C        76.0326   59.7032   42.3773 cn         1 CLA     -0.005600
     28 C1D        74.5510   57.4416   38.9673 ap         1 CLA     -0.047300
     29 O1A        80.9760   55.8208   32.4774 o2         1 CLA     -0.610800
     30 O1D        78.7467   54.9388   34.8426 o2         1 CLA     -0.558200
     31 C2         82.9918   53.6847   35.4885 c8         1 CLA     -0.325100
     32 C2A        79.7739   57.8906   35.9816 a1         1 CLA      0.098600
     33 C2B        80.2654   61.5026   41.0785 cb         1 CLA      0.088500
     34 C2C        74.9468   59.5363   43.2926 cb         1 CLA      0.053700
     35 C2D        73.9887   56.5244   37.9910 cb         1 CLA      0.058900
     36 O2A        82.1032   55.8869   34.4515 o1         1 CLA     -0.437200
     37 O2D        77.3907   54.3028   36.6342 o1         1 CLA     -0.357600
     38 C3         84.1289   53.0163   35.5325 c5         1 CLA      0.031200
     39 C3A        80.7123   58.8459   36.7858 a1         1 CLA      0.166800
     40 C3B        79.4325   61.5127   42.1969 cb         1 CLA      0.035000
     41 C3C        74.0261   58.7556   42.5680 cb         1 CLA     -0.089900
     42 C3D        75.0332   56.4235   37.0309 cb         1 CLA     -0.035900
     43 C4         84.2408   51.5858   35.0734 a3         1 CLA     -0.053300
     44 C4A        79.8247   59.2831   37.9549 ac         1 CLA      0.001800
     45 C4B        78.2775   60.7264   41.8122 cn         1 CLA     -0.020900
     46 C4C        74.4913   58.6032   41.2047 cr         1 CLA     -0.044400
     47 C4D        76.0823   57.2301   37.4127 c6         1 CLA     -0.046000
     48 C5         85.3317   53.7177   35.9914 a2         1 CLA     -0.070400
     49 C6         85.1008   54.8221   37.0198 a2         1 CLA      0.043900
     50 C7         86.3187   55.1035   37.8831 a2         1 CLA     -0.150000
     51 C8         86.1150   56.1315   38.9857 a1         1 CLA      0.064200
     52 C9         85.9051   57.4706   38.4137 a3         1 CLA     -0.259300
     53 C10        87.3176   56.1485   40.0013 a2         1 CLA     -0.071900
     54 C11        87.1399   57.0227   41.3200 a2         1 CLA      0.014500
     55 C12        88.4147   57.1493   42.1736 a2         1 CLA     -0.112100
     56 C13        88.4119   58.1039   43.4783 a1         1 CLA      0.089200
     57 C14        89.7172   57.7732   44.3417 a3         1 CLA     -0.239100
     58 C15        87.1143   57.8378   44.3173 a2         1 CLA     -0.102200
     59 C16        87.0394   58.3418   45.7542 a2         1 CLA      0.023900
     60 C17        85.5428   58.4656   46.0983 a2         1 CLA     -0.105700
     61 C18        85.2595   59.2561   47.4120 a1         1 CLA      0.206800
     62 C19        83.6916   59.5521   47.6076 a3         1 CLA     -0.280100
     63 C20        85.7885   58.5550   48.6455 a3         1 CLA     -0.280100
     64 NC         75.7532   59.2673   41.0893 nx         1 CLA     -0.309200
     65 MG         77.1683   59.0893   39.4983 mg         1 CLA      0.895000
     66 HMD3       72.5522   55.4854   39.0831 dc         1 CLA      0.064300
     67 HMD2       71.9454   56.5002   37.8296 dc         1 CLA      0.064300
     68 HMD1       72.7089   54.9218   37.4215 dc         1 CLA      0.064300
     69 HMC3       73.8650   59.5798   45.1157 dc         1 CLA      0.052100
     70 HMC2       75.6617   59.5930   45.2679 dc         1 CLA      0.052100
     71 HMC1       74.7905   60.9995   44.6468 dc         1 CLA      0.052100
     72 HMB3       81.6885   62.5751   39.8071 dc         1 CLA      0.063600
     73 HMB2       81.3726   63.2321   41.4474 dc         1 CLA      0.063600
     74 HMB1       82.4587   61.7665   41.1779 dc         1 CLA      0.063600
     75 HMA3       82.5651   57.8296   36.3956 dc         1 CLA      0.058300
     76 HMA2       82.7050   59.0215   37.6750 dc         1 CLA      0.058300
     77 HMA1       81.8768   57.5355   37.9880 dc         1 CLA      0.058300
     78 HED3       78.5975   52.7213   35.7849 dc         1 CLA      0.079300
     79 HED2       79.1078   53.3161   37.3946 dc         1 CLA      0.079300
     80 HED1       77.7108   52.2259   37.2218 dc         1 CLA      0.079300
     81 HBC3       73.3822   56.3805   43.9474 dc         1 CLA      0.016300
     82 HBC2       71.7382   56.1719   43.4751 dc         1 CLA      0.016300
     83 HBC1       73.0361   56.1862   42.1696 dc         1 CLA      0.016300
     84 HBB2       80.5836   62.8581   45.1703 da         1 CLA      0.183000
     85 HBB1       81.5156   62.0747   43.8413 da         1 CLA      0.183000
     86 HBA2       80.9607   58.2948   32.7610 dc         1 CLA      0.029400
     87 HBA1       81.8366   58.4654   34.1757 dc         1 CLA      0.029400
     88 HAC2       72.4727   58.4465   44.0779 dc         1 CLA      0.029300
     89 HAC1       71.9207   58.3255   42.3165 dc         1 CLA      0.029300
     90 HAA2       78.8936   57.6989   33.9730 dc         1 CLA      0.028700
     91 HAA1       79.4706   59.2524   34.3849 dc         1 CLA      0.028700
     92 H203       85.5241   59.1546   49.4946 dc         1 CLA      0.065600
     93 H202       85.4133   57.5214   48.8047 dc         1 CLA      0.065600
     94 H201       86.8412   58.4233   48.6768 dc         1 CLA      0.065600
     95 H193       83.5964   60.1266   48.5537 dc         1 CLA      0.065600
     96 H192       83.3840   60.0696   46.7217 dc         1 CLA      0.065600
     97 H191       83.1271   58.6213   47.6886 dc         1 CLA      0.065600
     98 H172       84.9532   58.9205   45.3498 dc         1 CLA      0.027600
     99 H171       85.0995   57.4450   46.0642 dc         1 CLA      0.027600
    100 H162       87.6296   57.7524   46.4301 dc         1 CLA      0.002900
    101 H161       87.4620   59.3583   45.7367 dc         1 CLA      0.002900
    102 H152       86.3836   58.3537   43.6801 dc         1 CLA      0.029100
    103 H151       86.7969   56.7599   44.3940 dc         1 CLA      0.029100
    104 H143       89.8757   58.7227   44.8776 dc         1 CLA      0.063600
    105 H142       89.5464   56.9553   45.0663 dc         1 CLA      0.063600
    106 H141       90.5482   57.6240   43.5990 dc         1 CLA      0.063600
    107 H122       88.6941   56.0986   42.4959 dc         1 CLA      0.032500
    108 H121       89.2177   57.5313   41.5499 dc         1 CLA      0.032500
    109 H112       86.6508   57.8865   41.0059 dc         1 CLA      0.006600
    110 H111       86.3347   56.4282   41.8496 dc         1 CLA      0.006600
    111 H102       87.4292   55.1244   40.2391 dc         1 CLA      0.024100
    112 H101       88.2640   56.5726   39.5627 dc         1 CLA      0.024100
    113 HHD        72.9044   57.3777   40.4874 da         1 CLA      0.174300
    114 HHC        77.2545   61.0539   43.6226 da         1 CLA      0.136800
    115 HHB        81.3295   60.5124   38.8805 da         1 CLA      0.138300
    116 HBD        76.8892   56.6611   34.5342 dc         1 CLA      0.107700
    117 HAB        78.5536   62.7262   43.8911 da         1 CLA      0.155200
    118 H93        85.0554   57.4887   37.7534 dc         1 CLA      0.069500
    119 H92        85.6693   58.1906   39.1980 dc         1 CLA      0.069500
    120 H91        86.7063   57.9283   37.9319 dc         1 CLA      0.069500
    121 H8         85.1704   55.8674   39.6009 dc         1 CLA      0.029300
    122 H72        86.6461   54.2306   38.4092 dc         1 CLA      0.044400
    123 H71        87.1741   55.4664   37.2795 dc         1 CLA      0.044400
    124 H62        84.7788   55.7676   36.5027 dc         1 CLA      0.015600
    125 H61        84.3530   54.5609   37.8042 dc         1 CLA      0.015600
    126 H52        86.0772   53.0746   36.4580 dc         1 CLA      0.033200
    127 H51        85.8607   54.2034   35.2028 dc         1 CLA      0.033200
    128 H43        84.6209   50.9259   35.8077 dc         1 CLA      0.037000
    129 H42        83.2641   51.2479   34.7246 dc         1 CLA      0.037000
    130 H41        84.9191   51.6231   34.2760 dc         1 CLA      0.037000
    131 H3A        80.9171   59.7641   36.1568 dc         1 CLA      0.041100
    132 H2A        80.1194   56.8494   36.0043 dc         1 CLA      0.083100
    133 H2         82.3615   53.5923   36.3923 da         1 CLA      0.180900
    134 H18        85.7837   60.2208   47.3542 dc         1 CLA     -0.003900
    135 H13        88.3279   59.1317   43.2278 dc         1 CLA      0.019700
    136 H12        81.3297   53.9577   34.1221 dc         1 CLA      0.120400
    137 H11        82.8239   54.3235   33.3155 dc         1 CLA      0.120400
    138 C1         68.7130   61.9780   50.5428 Z1         2 LUT      0.509236
    139 C2         68.8586   63.2161   51.4540 Z2         2 LUT     -0.434695
    140 C3         67.6265   64.2050   51.4411 Z3         2 LUT      0.437453
    141 O3         68.0997   65.5013   51.6881 S1         2 LUT     -0.547129
    142 C4         66.8235   64.1925   50.1627 Z4         2 LUT     -0.468603
    143 C5         67.5665   63.6354   48.9755 Z5         2 LUT      0.279246
    144 C6         68.3258   62.5395   49.1534 Z6         2 LUT     -0.305473
    145 C7         69.0245   61.9929   47.9848 Z7         2 LUT      0.069402
    146 C8         69.8926   62.6989   47.1828 Z8         2 LUT     -0.191631
    147 C9         70.7205   62.2357   45.9998 Z9         2 LUT      0.196698
    148 C10        71.5439   63.1747   45.3545 Y1         2 LUT     -0.208611
    149 C11        72.3162   63.0175   44.1199 Y2         2 LUT      0.030784
    150 C12        73.4605   63.6839   43.7256 Y3         2 LUT     -0.220316
    151 C13        74.3602   63.4818   42.6112 Y4         2 LUT      0.215937
    152 C14        75.4980   64.2363   42.5577 Y5         2 LUT     -0.185793
    153 C15        76.5704   64.2078   41.6154 Y6         2 LUT     -0.057835
    154 C16        67.4569   61.2937   50.9959 Y7         2 LUT     -0.405615
    155 C17        69.9520   60.9715   50.7280 Y7         2 LUT     -0.405615
    156 C18        67.3530   64.4481   47.6960 Y9         2 LUT     -0.369639
    157 C19        70.4521   60.8966   45.3223 W1         2 LUT     -0.333362
    158 C20        73.8890   62.5073   41.5437 W2         2 LUT     -0.323439
    159 C21        88.1559   65.3027   35.8498 Z1         2 LUT      0.406104
    160 C22        88.7209   64.7568   34.5435 Z2         2 LUT     -0.404965
    161 C23        88.8563   65.6741   33.3252 Z3         2 LUT      0.391255
    162 O23        89.2783   64.8731   32.2684 S1         2 LUT     -0.528210
    163 C24        87.6974   66.6049   33.1863 W6         2 LUT     -0.258361
    164 C25        86.7707   66.7597   34.1184 Z5         2 LUT      0.133546
    165 C26        86.7228   65.9675   35.4452 W8         2 LUT     -0.147008
    166 C27        86.0996   66.6955   36.5983 Z7         2 LUT      0.023843
    167 C28        84.9971   66.2032   37.1663 Z8         2 LUT     -0.216987
    168 C29        84.2856   66.7039   38.4044 Z9         2 LUT      0.206524
    169 C30        83.0197   66.2172   38.7445 Y1         2 LUT     -0.215556
    170 C31        82.1794   66.4453   39.8347 Y2         2 LUT      0.025142
    171 C32        80.9731   65.8044   39.9655 Y3         2 LUT     -0.212209
    172 C33        80.0404   65.8145   41.1487 Y4         2 LUT      0.240937
    173 C34        78.8828   64.9546   41.0889 Y5         2 LUT     -0.218862
    174 C35        77.7509   64.9246   41.8962 Y6         2 LUT     -0.023547
    175 C36        89.1903   66.3212   36.3963 Y7         2 LUT     -0.393485
    176 C37        88.1563   64.0053   36.7357 Y7         2 LUT     -0.393485
    177 C38        85.5431   67.6059   33.7662 Y9         2 LUT     -0.387526
    178 C39        85.0046   67.7413   39.2184 W1         2 LUT     -0.322618
    179 C40        80.6183   66.1617   42.5003 W2         2 LUT     -0.358472
    180 H403       81.6741   66.2530   42.5430 R7         2 LUT      0.097720
    181 H402       80.1710   67.0720   42.8616 R7         2 LUT      0.097720
    182 H401       80.3608   65.3688   43.1760 R7         2 LUT      0.097720
    183 H393       85.0505   68.7199   38.8072 R4         2 LUT      0.082505
    184 H392       84.3791   67.8952   40.0496 R4         2 LUT      0.082505
    185 H391       86.0031   67.5230   39.4523 R4         2 LUT      0.082505
    186 H383       85.3988   68.3312   34.5160 R1         2 LUT      0.104030
    187 H382       85.5908   68.0690   32.7940 R1         2 LUT      0.104030
    188 H381       84.7164   66.8635   33.5738 R1         2 LUT      0.104030
    189 H373       89.1615   63.5265   36.8955 T4         2 LUT      0.089537
    190 H372       87.7532   64.2573   37.7414 T4         2 LUT      0.089537
    191 H371       87.4712   63.3369   36.3535 T4         2 LUT      0.089537
    192 H363       89.4441   67.1626   35.7310 T4         2 LUT      0.089537
    193 H362       88.8421   66.8017   37.3261 T4         2 LUT      0.089537
    194 H361       90.1558   65.8143   36.5493 T4         2 LUT      0.089537
    195 H222       89.6831   64.3319   34.7755 U2         2 LUT      0.127376
    196 H221       88.1359   63.8984   34.2750 U2         2 LUT      0.127376
    197 H203       74.6411   62.1369   40.8247 R7         2 LUT      0.087068
    198 H202       73.4697   61.5933   42.0026 R7         2 LUT      0.087068
    199 H201       73.1465   63.0186   40.9633 R7         2 LUT      0.087068
    200 H193       71.2176   60.1095   45.5635 R4         2 LUT      0.089716
    201 H192       69.6549   60.3038   45.5829 R4         2 LUT      0.089716
    202 H191       70.4869   60.9402   44.2650 R4         2 LUT      0.089716
    203 H183       68.0517   65.3300   47.7580 R1         2 LUT      0.094572
    204 H182       67.5975   63.8494   46.8230 R1         2 LUT      0.094572
    205 H181       66.3618   64.9077   47.6631 R1         2 LUT      0.094572
    206 H173       70.9161   61.4913   50.6550 T4         2 LUT      0.093752
    207 H172       69.8193   60.6519   51.7187 T4         2 LUT      0.093752
    208 H171       69.9978   60.0708   50.0846 T4         2 LUT      0.093752
    209 H163       67.3397   60.2912   50.5899 T4         2 LUT      0.093752
    210 H162       67.4600   61.0730   52.0931 T4         2 LUT      0.093752
    211 H161       66.4639   61.7359   50.7777 T4         2 LUT      0.093752
    212 HO3        67.4231   66.1266   52.0462 Q1         2 LUT      0.300121
    213 H8         70.0688   63.7352   47.4624 U7         2 LUT      0.080784
    214 H7         68.7777   60.9714   47.8069 U6         2 LUT      0.042190
    215 H42        65.8760   63.6316   50.2633 U5         2 LUT      0.145166
    216 H41        66.4092   65.2156   50.0074 U5         2 LUT      0.145166
    217 H35        77.8119   65.6962   42.6921 T3         2 LUT      0.077919
    218 H34        78.7948   64.4182   40.1356 T2         2 LUT      0.073626
    219 H32        80.7284   65.1924   39.1009 T1         2 LUT      0.092510
    220 H31        82.5816   67.0007   40.6286 U9         2 LUT      0.070048
    221 H30        82.5399   65.5181   38.0981 U8         2 LUT      0.085442
    222 H3         67.0181   63.7301   52.2654 U3         2 LUT     -0.031596
    223 H28        84.5219   65.2338   36.7784 U7         2 LUT      0.084728
    224 H27        86.6389   67.5830   36.8834 U6         2 LUT      0.087291
    225 H26        86.0968   65.1338   35.0702 Q6         2 LUT      0.075325
    226 H24        87.5917   67.1982   32.3212 Q5         2 LUT      0.094482
    227 H23        89.6879   66.4198   33.5005 U3         2 LUT     -0.024869
    228 H22        68.9658   62.9429   52.5254 U2         2 LUT      0.127376
    229 H21        69.7307   63.7769   51.0655 U2         2 LUT      0.127376
    230 H15        76.6650   63.5416   40.7369 T3         2 LUT      0.093200
    231 H14        75.7086   64.7841   43.4108 T2         2 LUT      0.068865
    232 H12        73.7308   64.4419   44.4138 T1         2 LUT      0.095507
    233 H11        72.1060   62.1681   43.4915 U9         2 LUT      0.068930
    234 H10        71.6751   64.1952   45.8690 U8         2 LUT      0.083911
    235 H1         89.4987   65.3729   31.5289 Q1         2 LUT      0.297311
@<TRIPOS>BOND
    1     6     1 1
    2     7     2 1
    3     8     3 1
    4     9     4 1
    5    11     4 1
    6    12     6 1
    7    13     9 1
    8    16     9 1
    9    25     5 1
   10    25    16 1
   11    26    10 1
   12    26    17 1
   13    27    18 1
   14    28    14 1
   15    28    19 1
   16    29    12 1
   17    30    13 1
   18    31    24 1
   19    32     1 1
   20    32    25 1
   21    33    21 1
   22    33    26 1
   23    34    22 1
   24    34    27 1
   25    35    23 1
   26    35    28 1
   27    36    12 1
   28    36    24 1
   29    37    13 1
   30    37    15 1
   31    38    31 1
   32    39    20 1
   33    39    32 1
   34    40     2 1
   35    40    33 1
   36    41     3 1
   37    41    34 1
   38    42     4 1
   39    42    35 1
   40    43    38 1
   41    44     5 1
   42    44    17 1
   43    44    39 1
   44    45    10 1
   45    45    18 1
   46    45    40 1
   47    46    19 1
   48    46    41 1
   49    47    14 1
   50    47    16 1
   51    47    42 1
   52    48    38 1
   53    49    48 1
   54    50    49 1
   55    51    50 1
   56    52    51 1
   57    53    51 1
   58    54    53 1
   59    55    54 1
   60    56    55 1
   61    57    56 1
   62    58    56 1
   63    59    58 1
   64    60    59 1
   65    61    60 1
   66    62    61 1
   67    63    61 1
   68    64    27 1
   69    64    46 1
   70    65     5 1
   71    65    10 1
   72    65    64 1
   73    65    14 1
   74    66    23 1
   75    67    23 1
   76    68    23 1
   77    69    22 1
   78    70    22 1
   79    71    22 1
   80    72    21 1
   81    73    21 1
   82    74    21 1
   83    75    20 1
   84    76    20 1
   85    77    20 1
   86    78    15 1
   87    79    15 1
   88    80    15 1
   89    81     8 1
   90    82     8 1
   91    83     8 1
   92    84     7 1
   93    85     7 1
   94    86     6 1
   95    87     6 1
   96    88     3 1
   97    89     3 1
   98    90     1 1
   99    91     1 1
  100    92    63 1
  101    93    63 1
  102    94    63 1
  103    95    62 1
  104    96    62 1
  105    97    62 1
  106    98    60 1
  107    99    60 1
  108   100    59 1
  109   101    59 1
  110   102    58 1
  111   103    58 1
  112   104    57 1
  113   105    57 1
  114   106    57 1
  115   107    55 1
  116   108    55 1
  117   109    54 1
  118   110    54 1
  119   111    53 1
  120   112    53 1
  121   113    19 1
  122   114    18 1
  123   115    17 1
  124   116     9 1
  125   117     2 1
  126   118    52 1
  127   119    52 1
  128   120    52 1
  129   121    51 1
  130   122    50 1
  131   123    50 1
  132   124    49 1
  133   125    49 1
  134   126    48 1
  135   127    48 1
  136   128    43 1
  137   129    43 1
  138   130    43 1
  139   131    39 1
  140   132    32 1
  141   133    31 1
  142   134    61 1
  143   135    56 1
  144   136    24 1
  145   137    24 1
  146   139   138 1
  147   140   139 1
  148   141   140 1
  149   142   140 1
  150   143   142 1
  151   144   138 1
  152   144   143 1
  153   145   144 1
  154   146   145 1
  155   147   146 1
  156   148   147 1
  157   149   148 1
  158   150   149 1
  159   151   150 1
  160   152   151 1
  161   153   152 1
  162   154   138 1
  163   155   138 1
  164   156   143 1
  165   157   147 1
  166   158   151 1
  167   160   159 1
  168   161   160 1
  169   162   161 1
  170   163   161 1
  171   164   163 1
  172   165   159 1
  173   165   164 1
  174   166   165 1
  175   167   166 1
  176   168   167 1
  177   169   168 1
  178   170   169 1
  179   171   170 1
  180   172   171 1
  181   173   172 1
  182   174   153 1
  183   174   173 1
  184   175   159 1
  185   176   159 1
  186   177   164 1
  187   178   168 1
  188   179   172 1
  189   180   179 1
  190   181   179 1
  191   182   179 1
  192   183   178 1
  193   184   178 1
  194   185   178 1
  195   186   177 1
  196   187   177 1
  197   188   177 1
  198   189   176 1
  199   190   176 1
  200   191   176 1
  201   192   175 1
  202   193   175 1
  203   194   175 1
  204   195   160 1
  205   196   160 1
  206   197   158 1
  207   198   158 1
  208   199   158 1
  209   200   157 1
  210   201   157 1
  211   202   157 1
  212   203   156 1
  213   204   156 1
  214   205   156 1
  215   206   155 1
  216   207   155 1
  217   208   155 1
  218   209   154 1
  219   210   154 1
  220   211   154 1
  221   212   141 1
  222   213   146 1
  223   214   145 1
  224   215   142 1
  225   216   142 1
  226   217   174 1
  227   218   173 1
  228   219   171 1
  229   220   170 1
  230   221   169 1
  231   222   140 1
  232   223   167 1
  233   224   166 1
  234   225   165 1
  235   226   163 1
  236   227   161 1
  237   228   139 1
  238   229   139 1
  239   230   153 1
  240   231   152 1
  241   232   150 1
  242   233   149 1
  243   234   148 1
  244   235   162 1
  245   65    153 1
  246   65    174 1
@<TRIPOS>SUBSTRUCTURE
      1 CLA               1 ****               0 ****  **** 
      2 LUT             138 ****               0 ****  **** 
