@<TRIPOS>MOLECULE
Cpptraj generated mol2 file.
  235   246     2     0     0
SMALL
USER_CHARGES


@<TRIPOS>ATOM
      1 CAA        79.5695   57.4255   34.4066 a2         1 CLA     -0.055900
      2 CAB        79.5273   61.5226   43.5296 c8         1 CLA     -0.148500
      3 CAC        72.7129   57.5263   43.2267 a2         1 CLA     -0.012600
      4 CAD        75.1795   55.2858   35.8871 ck         1 CLA      0.398800
      5 NA         78.4678   58.1389   37.9230 ns         1 CLA     -0.225500
      6 CBA        80.7067   56.8923   33.5473 a2         1 CLA     -0.135000
      7 CBB        80.7029   61.9636   44.0495 c0         1 CLA     -0.395200
      8 CBC        72.9947   56.0408   43.2335 a3         1 CLA     -0.037700
      9 CBD        76.6280   55.7154   35.4570 a1         1 CLA     -0.053900
     10 NB         78.3524   59.8143   40.5552 nm         1 CLA     -0.295700
     11 OBD        74.4611   54.4871   35.2769 o2         1 CLA     -0.494600
     12 CGA        80.9452   55.4510   33.4266 c4         1 CLA      0.827000
     13 CGD        77.6011   54.4960   35.3717 c4         1 CLA      0.655300
     14 ND         75.6573   57.3688   38.5909 nm         1 CLA     -0.291600
     15 CED        78.5033   52.7015   36.5659 a3         1 CLA      0.005400
     16 CHA        76.9938   56.7453   36.5453 cs         1 CLA     -0.123800
     17 CHB        80.2050   59.4656   38.9309 aa         1 CLA     -0.291900
     18 CHC        77.0187   60.0933   42.5252 aa         1 CLA     -0.090400
     19 CHD        73.6746   57.4733   40.0844 aa         1 CLA     -0.052000
     20 CMA        81.9619   57.4522   37.0272 a3         1 CLA     -0.230700
     21 CMB        81.7427   61.3411   40.8718 a3         1 CLA     -0.180800
     22 CMC        74.7922   59.6315   44.5361 a3         1 CLA     -0.134000
     23 CMD        72.5152   55.3285   38.0817 a3         1 CLA     -0.141100
     24 C1         81.9159   53.4645   34.4075 a2         1 CLA      0.023000
     25 C1A        78.2564   57.3800   36.7751 ac         1 CLA     -0.015100
     26 C1B        79.6241   59.9676   40.1389 cr         1 CLA      0.054700
     27 C1C        75.8068   59.4275   42.2516 cn         1 CLA     -0.005600
     28 C1D        74.3221   57.0617   38.9119 ap         1 CLA     -0.047300
     29 O1A        80.6021   54.8252   32.4062 o2         1 CLA     -0.610800
     30 O1D        78.3541   54.2605   34.4330 o2         1 CLA     -0.558200
     31 C2         82.3341   52.8591   35.7358 c8         1 CLA     -0.325100
     32 C2A        79.5420   57.1379   35.9974 a1         1 CLA      0.098600
     33 C2B        80.3387   60.7293   41.1276 cb         1 CLA      0.088500
     34 C2C        74.7443   59.1836   43.1405 cb         1 CLA      0.053700
     35 C2D        73.8320   56.0480   38.0098 cb         1 CLA      0.058900
     36 O2A        81.5698   54.8898   34.5269 o1         1 CLA     -0.437200
     37 O2D        77.4352   53.6965   36.5081 o1         1 CLA     -0.357600
     38 C3         83.5635   52.3606   36.0731 c5         1 CLA      0.031200
     39 C3A        80.5409   58.1178   36.8053 a1         1 CLA      0.166800
     40 C3B        79.4026   60.8551   42.2433 cb         1 CLA      0.035000
     41 C3C        73.7958   58.3624   42.4926 cb         1 CLA     -0.089900
     42 C3D        74.8480   55.9245   37.0834 cb         1 CLA     -0.035900
     43 C4         83.8172   50.9229   35.9264 a3         1 CLA     -0.053300
     44 C4A        79.7019   58.6256   37.9937 ac         1 CLA      0.001800
     45 C4B        78.1749   60.2276   41.8400 cn         1 CLA     -0.020900
     46 C4C        74.3140   58.2423   41.1362 cr         1 CLA     -0.044400
     47 C4D        75.8984   56.7661   37.4255 c6         1 CLA     -0.046000
     48 C5         84.7037   53.3735   36.2524 a2         1 CLA     -0.070400
     49 C6         84.8649   53.7305   37.6987 a2         1 CLA      0.043900
     50 C7         85.9430   54.8389   37.9820 a2         1 CLA     -0.150000
     51 C8         85.8532   55.5166   39.4938 a1         1 CLA      0.064200
     52 C9         84.7130   56.6205   39.4763 a3         1 CLA     -0.259300
     53 C10        87.2505   56.1348   39.8254 a2         1 CLA     -0.071900
     54 C11        87.4710   56.5438   41.2917 a2         1 CLA      0.014500
     55 C12        86.9848   55.5060   42.3659 a2         1 CLA     -0.112100
     56 C13        87.5014   55.7285   43.7926 a1         1 CLA      0.089200
     57 C14        87.2257   54.4411   44.7391 a3         1 CLA     -0.239100
     58 C15        86.9653   57.0683   44.4204 a2         1 CLA     -0.102200
     59 C16        85.4929   56.9566   44.8933 a2         1 CLA      0.023900
     60 C17        84.9830   58.2682   45.4872 a2         1 CLA     -0.105700
     61 C18        83.4458   58.2804   45.8527 a1         1 CLA      0.206800
     62 C19        83.1233   57.5437   47.1692 a3         1 CLA     -0.280100
     63 C20        83.0206   59.7708   45.9850 a3         1 CLA     -0.280100
     64 NC         75.5884   58.7280   41.0904 nx         1 CLA     -0.309200
     65 MG         76.9867   58.6441   39.4372 mg         1 CLA      0.895000
     66 HMD3       72.4833   54.4380   37.5055 dc         1 CLA      0.064300
     67 HMD2       72.3906   55.0169   39.1383 dc         1 CLA      0.064300
     68 HMD1       71.7012   55.9817   37.8218 dc         1 CLA      0.064300
     69 HMC3       75.3499   60.5575   44.6736 dc         1 CLA      0.052100
     70 HMC2       73.7899   59.7529   44.8147 dc         1 CLA      0.052100
     71 HMC1       75.2704   58.9060   45.1376 dc         1 CLA      0.052100
     72 HMB3       81.8796   62.2153   41.4093 dc         1 CLA      0.063600
     73 HMB2       82.5288   60.5816   41.2608 dc         1 CLA      0.063600
     74 HMB1       81.8212   61.5770   39.8084 dc         1 CLA      0.063600
     75 HMA3       82.6002   58.2045   37.4984 dc         1 CLA      0.058300
     76 HMA2       81.9398   56.4971   37.6370 dc         1 CLA      0.058300
     77 HMA1       82.3724   57.0898   36.1386 dc         1 CLA      0.058300
     78 HED3       78.1957   52.1084   37.4294 dc         1 CLA      0.079300
     79 HED2       78.5577   52.0592   35.7001 dc         1 CLA      0.079300
     80 HED1       79.4962   53.1225   36.6244 dc         1 CLA      0.079300
     81 HBC3       73.0427   55.6069   42.1746 dc         1 CLA      0.016300
     82 HBC2       73.8672   55.8742   43.6589 dc         1 CLA      0.016300
     83 HBC1       72.1244   55.5619   43.6893 dc         1 CLA      0.016300
     84 HBB2       80.6473   62.4749   45.0330 da         1 CLA      0.183000
     85 HBB1       81.7037   61.8408   43.4909 da         1 CLA      0.183000
     86 HBA2       80.5469   57.3784   32.5623 dc         1 CLA      0.029400
     87 HBA1       81.5643   57.3134   33.9859 dc         1 CLA      0.029400
     88 HAC2       72.7146   57.8033   44.2698 dc         1 CLA      0.029300
     89 HAC1       71.7487   57.8174   42.7988 dc         1 CLA      0.029300
     90 HAA2       78.6666   56.9805   33.9237 dc         1 CLA      0.028700
     91 HAA1       79.5454   58.4804   34.3693 dc         1 CLA      0.028700
     92 H203       83.6886   60.4454   46.4397 dc         1 CLA      0.065600
     93 H202       82.8767   60.1213   44.9368 dc         1 CLA      0.065600
     94 H201       82.0982   59.7567   46.4862 dc         1 CLA      0.065600
     95 H193       83.3535   58.1290   48.0591 dc         1 CLA      0.065600
     96 H192       82.0125   57.4121   47.2065 dc         1 CLA      0.065600
     97 H191       83.6944   56.6379   47.3423 dc         1 CLA      0.065600
     98 H172       85.5253   58.4838   46.4120 dc         1 CLA      0.027600
     99 H171       85.1189   59.0435   44.7682 dc         1 CLA      0.027600
    100 H162       84.9666   56.6966   43.9799 dc         1 CLA      0.002900
    101 H161       85.3435   56.2167   45.6656 dc         1 CLA      0.002900
    102 H152       87.4960   57.2294   45.2977 dc         1 CLA      0.029100
    103 H151       87.2121   57.9389   43.8416 dc         1 CLA      0.029100
    104 H143       86.2271   54.0418   44.6450 dc         1 CLA      0.063600
    105 H142       87.9551   53.6578   44.4091 dc         1 CLA      0.063600
    106 H141       87.5033   54.6716   45.7599 dc         1 CLA      0.063600
    107 H122       85.9487   55.4307   42.2952 dc         1 CLA      0.032500
    108 H121       87.2735   54.5020   41.9763 dc         1 CLA      0.032500
    109 H112       88.4892   56.9069   41.4668 dc         1 CLA      0.006600
    110 H111       86.8680   57.4463   41.3027 dc         1 CLA      0.006600
    111 H102       87.9423   55.2984   39.6830 dc         1 CLA      0.024100
    112 H101       87.4918   56.8033   39.0438 dc         1 CLA      0.024100
    113 HHD        72.6667   57.1334   40.2772 da         1 CLA      0.174300
    114 HHC        77.0405   60.5070   43.5104 da         1 CLA      0.136800
    115 HHB        81.2263   59.6497   38.8088 da         1 CLA      0.138300
    116 HBD        76.4871   56.2501   34.4890 dc         1 CLA      0.107700
    117 HAB        78.6674   61.6623   44.1836 da         1 CLA      0.155200
    118 H93        84.7173   57.2557   40.4127 dc         1 CLA      0.069500
    119 H92        84.8463   57.2642   38.5936 dc         1 CLA      0.069500
    120 H91        83.7188   56.2556   39.4354 dc         1 CLA      0.069500
    121 H8         85.6506   54.7210   40.1358 dc         1 CLA      0.029300
    122 H72        86.9261   54.3793   37.8712 dc         1 CLA      0.044400
    123 H71        85.9163   55.5530   37.1762 dc         1 CLA      0.044400
    124 H62        83.8815   54.0499   38.0688 dc         1 CLA      0.015600
    125 H61        85.2448   52.8579   38.2177 dc         1 CLA      0.015600
    126 H52        85.6039   53.0195   35.7489 dc         1 CLA      0.033200
    127 H51        84.2907   54.2470   35.8157 dc         1 CLA      0.033200
    128 H43        82.9441   50.4545   35.4407 dc         1 CLA      0.037000
    129 H42        84.5596   50.9259   35.1697 dc         1 CLA      0.037000
    130 H41        84.1749   50.3609   36.7737 dc         1 CLA      0.037000
    131 H3A        80.7185   58.9930   36.0645 dc         1 CLA      0.041100
    132 H2A        79.8320   56.1153   36.2275 dc         1 CLA      0.083100
    133 H2         81.7476   53.0188   36.5616 da         1 CLA      0.180900
    134 H18        82.8592   57.8610   45.0729 dc         1 CLA     -0.003900
    135 H13        88.6081   55.9446   43.7259 dc         1 CLA      0.019700
    136 H12        80.9800   52.8980   34.1668 dc         1 CLA      0.120400
    137 H11        82.6685   53.1845   33.6650 dc         1 CLA      0.120400
    138 C1         70.2224   61.5976   50.2610 Z1         2 LUT      0.509236
    139 C2         68.8797   61.4110   51.0402 Z2         2 LUT     -0.434695
    140 C3         67.8119   62.5340   51.0872 Z3         2 LUT      0.437453
    141 O3         67.6904   63.0033   52.4268 S1         2 LUT     -0.547129
    142 C4         68.1496   63.6767   50.1713 Z4         2 LUT     -0.468603
    143 C5         68.8790   63.3225   48.9819 Z5         2 LUT      0.279246
    144 C6         69.9087   62.4398   48.9846 Z6         2 LUT     -0.305473
    145 C7         70.3413   61.9054   47.6717 Z7         2 LUT      0.069402
    146 C8         71.1169   62.4490   46.7868 Z8         2 LUT     -0.191631
    147 C9         71.4253   61.9478   45.4308 Z9         2 LUT      0.196698
    148 C10        72.3208   62.6753   44.7171 Y1         2 LUT     -0.208611
    149 C11        72.9379   62.4221   43.4595 Y2         2 LUT      0.030784
    150 C12        74.0787   63.0590   43.1702 Y3         2 LUT     -0.220316
    151 C13        75.0393   62.8951   42.0947 Y4         2 LUT      0.215937
    152 C14        76.3160   63.3854   42.2785 Y5         2 LUT     -0.185793
    153 C15        77.4673   63.5025   41.4813 Y6         2 LUT     -0.057835
    154 C16        70.8811   60.2507   50.0465 Y7         2 LUT     -0.405615
    155 C17        71.1584   62.5407   51.1210 Y7         2 LUT     -0.405615
    156 C18        68.3194   63.9479   47.7406 Y9         2 LUT     -0.369639
    157 C19        70.7467   60.7199   44.8751 W1         2 LUT     -0.333362
    158 C20        74.4623   62.4205   40.7836 W2         2 LUT     -0.323439
    159 C21        88.2608   64.3203   35.0175 Z1         2 LUT      0.406104
    160 C22        88.9061   63.5107   33.8161 Z2         2 LUT     -0.404965
    161 C23        88.9302   64.2516   32.5008 Z3         2 LUT      0.391255
    162 O23        89.1002   63.1943   31.5052 S1         2 LUT     -0.528210
    163 C24        87.7786   65.1867   32.2424 W6         2 LUT     -0.258361
    164 C25        86.8425   65.5024   33.1381 Z5         2 LUT      0.133546
    165 C26        86.8692   64.8890   34.5324 W8         2 LUT     -0.147008
    166 C27        86.3167   65.6175   35.7079 Z7         2 LUT      0.023843
    167 C28        85.2579   65.2548   36.4708 Z8         2 LUT     -0.216987
    168 C29        84.6715   65.8685   37.7013 Z9         2 LUT      0.206524
    169 C30        83.4329   65.4496   38.1459 Y1         2 LUT     -0.215556
    170 C31        82.6130   65.7168   39.3133 Y2         2 LUT      0.025142
    171 C32        81.4903   65.0321   39.6337 Y3         2 LUT     -0.212209
    172 C33        80.7096   65.1276   40.7851 Y4         2 LUT      0.240937
    173 C34        79.6218   64.3205   40.8039 Y5         2 LUT     -0.218862
    174 C35        78.5451   64.2650   41.7444 Y6         2 LUT     -0.023547
    175 C36        89.3419   65.4237   35.2496 Y7         2 LUT     -0.393485
    176 C37        88.2726   63.3181   36.2858 Y7         2 LUT     -0.393485
    177 C38        85.9774   66.6649   32.8828 Y9         2 LUT     -0.387526
    178 C39        85.3424   66.9384   38.5142 W1         2 LUT     -0.322618
    179 C40        81.1721   65.8134   42.0858 W2         2 LUT     -0.358472
    180 H403       80.7228   66.7974   42.1577 R7         2 LUT      0.097720
    181 H402       80.8824   65.2513   42.9661 R7         2 LUT      0.097720
    182 H401       82.2576   65.8121   42.0415 R7         2 LUT      0.097720
    183 H393       86.3517   67.1565   38.1020 R4         2 LUT      0.082505
    184 H392       84.7633   67.8729   38.4760 R4         2 LUT      0.082505
    185 H391       85.4212   66.6934   39.5931 R4         2 LUT      0.082505
    186 H383       85.0088   66.4520   33.2935 R1         2 LUT      0.104030
    187 H382       86.2826   67.6217   33.4556 R1         2 LUT      0.104030
    188 H381       85.8775   66.9628   31.8344 R1         2 LUT      0.104030
    189 H373       89.1271   62.6676   36.2461 T4         2 LUT      0.089537
    190 H372       88.2417   63.8855   37.2057 T4         2 LUT      0.089537
    191 H371       87.4804   62.5582   36.3479 T4         2 LUT      0.089537
    192 H363       89.1858   65.8936   36.2250 T4         2 LUT      0.089537
    193 H362       90.3452   64.9970   35.1826 T4         2 LUT      0.089537
    194 H361       89.2912   66.2016   34.4596 T4         2 LUT      0.089537
    195 H222       89.9077   63.1453   34.1205 U2         2 LUT      0.127376
    196 H221       88.2948   62.6515   33.6146 U2         2 LUT      0.127376
    197 H203       73.4739   62.9013   40.5955 R7         2 LUT      0.087068
    198 H202       75.0351   62.7348   39.9069 R7         2 LUT      0.087068
    199 H201       74.3047   61.3439   40.8003 R7         2 LUT      0.087068
    200 H193       71.1013   59.8549   45.4014 R4         2 LUT      0.089716
    201 H192       69.6649   60.7974   45.1531 R4         2 LUT      0.089716
    202 H191       70.7623   60.5025   43.7697 R4         2 LUT      0.089716
    203 H183       68.3005   63.2758   46.9067 R1         2 LUT      0.094572
    204 H182       67.2337   64.2721   47.8479 R1         2 LUT      0.094572
    205 H181       68.9048   64.7203   47.3397 R1         2 LUT      0.094572
    206 H173       70.6236   63.3850   51.5748 T4         2 LUT      0.093752
    207 H172       71.7394   61.8909   51.8463 T4         2 LUT      0.093752
    208 H171       71.9224   63.0540   50.4742 T4         2 LUT      0.093752
    209 H163       71.6792   60.3772   49.3906 T4         2 LUT      0.093752
    210 H162       71.1348   59.6466   50.8780 T4         2 LUT      0.093752
    211 H161       70.1829   59.6663   49.5452 T4         2 LUT      0.093752
    212 HO3        67.0521   62.4777   52.9137 Q1         2 LUT      0.300121
    213 H8         71.5902   63.4400   47.0692 U7         2 LUT      0.080784
    214 H7         69.9307   60.9599   47.4323 U6         2 LUT      0.042190
    215 H42        67.2062   64.3044   50.0058 U5         2 LUT      0.145166
    216 H41        68.7776   64.3938   50.7630 U5         2 LUT      0.145166
    217 H35        78.5061   64.9360   42.6318 T3         2 LUT      0.077919
    218 H34        79.3315   63.7510   39.9314 T2         2 LUT      0.073626
    219 H32        81.1465   64.4143   38.8334 T1         2 LUT      0.092510
    220 H31        83.0881   66.4410   40.0048 U9         2 LUT      0.070048
    221 H30        82.9654   64.6306   37.5175 U8         2 LUT      0.085442
    222 H3         66.8679   62.0988   50.6971 U3         2 LUT     -0.031596
    223 H28        84.7327   64.4097   36.1521 U7         2 LUT      0.084728
    224 H27        86.8400   66.5016   35.9631 U6         2 LUT      0.087291
    225 H26        86.2267   64.0198   34.3641 Q6         2 LUT      0.075325
    226 H24        87.7910   65.7647   31.2900 Q5         2 LUT      0.094482
    227 H23        89.7840   64.8943   32.5103 U3         2 LUT     -0.024869
    228 H22        68.2814   60.6078   50.6475 U2         2 LUT      0.127376
    229 H21        69.1034   61.1329   52.1354 U2         2 LUT      0.127376
    230 H15        77.5470   62.8560   40.6118 T3         2 LUT      0.093200
    231 H14        76.4595   63.8701   43.2396 T2         2 LUT      0.068865
    232 H12        74.5036   63.6314   43.9530 T1         2 LUT      0.095507
    233 H11        72.5736   61.7260   42.8312 U9         2 LUT      0.068930
    234 H10        72.6920   63.5393   45.2861 U8         2 LUT      0.083911
    235 H1         89.4586   63.5326   30.6508 Q1         2 LUT      0.297311
@<TRIPOS>BOND
    1     6     1 1
    2     7     2 1
    3     8     3 1
    4     9     4 1
    5    11     4 1
    6    12     6 1
    7    13     9 1
    8    16     9 1
    9    25     5 1
   10    25    16 1
   11    26    10 1
   12    26    17 1
   13    27    18 1
   14    28    14 1
   15    28    19 1
   16    29    12 1
   17    30    13 1
   18    31    24 1
   19    32     1 1
   20    32    25 1
   21    33    21 1
   22    33    26 1
   23    34    22 1
   24    34    27 1
   25    35    23 1
   26    35    28 1
   27    36    12 1
   28    36    24 1
   29    37    13 1
   30    37    15 1
   31    38    31 1
   32    39    20 1
   33    39    32 1
   34    40     2 1
   35    40    33 1
   36    41     3 1
   37    41    34 1
   38    42     4 1
   39    42    35 1
   40    43    38 1
   41    44     5 1
   42    44    17 1
   43    44    39 1
   44    45    10 1
   45    45    18 1
   46    45    40 1
   47    46    19 1
   48    46    41 1
   49    47    14 1
   50    47    16 1
   51    47    42 1
   52    48    38 1
   53    49    48 1
   54    50    49 1
   55    51    50 1
   56    52    51 1
   57    53    51 1
   58    54    53 1
   59    55    54 1
   60    56    55 1
   61    57    56 1
   62    58    56 1
   63    59    58 1
   64    60    59 1
   65    61    60 1
   66    62    61 1
   67    63    61 1
   68    64    27 1
   69    64    46 1
   70    65     5 1
   71    65    10 1
   72    65    64 1
   73    65    14 1
   74    66    23 1
   75    67    23 1
   76    68    23 1
   77    69    22 1
   78    70    22 1
   79    71    22 1
   80    72    21 1
   81    73    21 1
   82    74    21 1
   83    75    20 1
   84    76    20 1
   85    77    20 1
   86    78    15 1
   87    79    15 1
   88    80    15 1
   89    81     8 1
   90    82     8 1
   91    83     8 1
   92    84     7 1
   93    85     7 1
   94    86     6 1
   95    87     6 1
   96    88     3 1
   97    89     3 1
   98    90     1 1
   99    91     1 1
  100    92    63 1
  101    93    63 1
  102    94    63 1
  103    95    62 1
  104    96    62 1
  105    97    62 1
  106    98    60 1
  107    99    60 1
  108   100    59 1
  109   101    59 1
  110   102    58 1
  111   103    58 1
  112   104    57 1
  113   105    57 1
  114   106    57 1
  115   107    55 1
  116   108    55 1
  117   109    54 1
  118   110    54 1
  119   111    53 1
  120   112    53 1
  121   113    19 1
  122   114    18 1
  123   115    17 1
  124   116     9 1
  125   117     2 1
  126   118    52 1
  127   119    52 1
  128   120    52 1
  129   121    51 1
  130   122    50 1
  131   123    50 1
  132   124    49 1
  133   125    49 1
  134   126    48 1
  135   127    48 1
  136   128    43 1
  137   129    43 1
  138   130    43 1
  139   131    39 1
  140   132    32 1
  141   133    31 1
  142   134    61 1
  143   135    56 1
  144   136    24 1
  145   137    24 1
  146   139   138 1
  147   140   139 1
  148   141   140 1
  149   142   140 1
  150   143   142 1
  151   144   138 1
  152   144   143 1
  153   145   144 1
  154   146   145 1
  155   147   146 1
  156   148   147 1
  157   149   148 1
  158   150   149 1
  159   151   150 1
  160   152   151 1
  161   153   152 1
  162   154   138 1
  163   155   138 1
  164   156   143 1
  165   157   147 1
  166   158   151 1
  167   160   159 1
  168   161   160 1
  169   162   161 1
  170   163   161 1
  171   164   163 1
  172   165   159 1
  173   165   164 1
  174   166   165 1
  175   167   166 1
  176   168   167 1
  177   169   168 1
  178   170   169 1
  179   171   170 1
  180   172   171 1
  181   173   172 1
  182   174   153 1
  183   174   173 1
  184   175   159 1
  185   176   159 1
  186   177   164 1
  187   178   168 1
  188   179   172 1
  189   180   179 1
  190   181   179 1
  191   182   179 1
  192   183   178 1
  193   184   178 1
  194   185   178 1
  195   186   177 1
  196   187   177 1
  197   188   177 1
  198   189   176 1
  199   190   176 1
  200   191   176 1
  201   192   175 1
  202   193   175 1
  203   194   175 1
  204   195   160 1
  205   196   160 1
  206   197   158 1
  207   198   158 1
  208   199   158 1
  209   200   157 1
  210   201   157 1
  211   202   157 1
  212   203   156 1
  213   204   156 1
  214   205   156 1
  215   206   155 1
  216   207   155 1
  217   208   155 1
  218   209   154 1
  219   210   154 1
  220   211   154 1
  221   212   141 1
  222   213   146 1
  223   214   145 1
  224   215   142 1
  225   216   142 1
  226   217   174 1
  227   218   173 1
  228   219   171 1
  229   220   170 1
  230   221   169 1
  231   222   140 1
  232   223   167 1
  233   224   166 1
  234   225   165 1
  235   226   163 1
  236   227   161 1
  237   228   139 1
  238   229   139 1
  239   230   153 1
  240   231   152 1
  241   232   150 1
  242   233   149 1
  243   234   148 1
  244   235   162 1
  245   65    153 1
  246   65    174 1
@<TRIPOS>SUBSTRUCTURE
      1 CLA               1 ****               0 ****  **** 
      2 LUT             138 ****               0 ****  **** 
