@<TRIPOS>MOLECULE
Cpptraj generated mol2 file.
  235   246     2     0     0
SMALL
USER_CHARGES


@<TRIPOS>ATOM
      1 CAA        79.3542   58.7676   33.4459 a2         1 CLA     -0.055900
      2 CAB        78.8138   61.2813   42.7336 c8         1 CLA     -0.148500
      3 CAC        71.9097   57.5725   41.5338 a2         1 CLA     -0.012600
      4 CAD        74.7511   56.4715   33.8058 ck         1 CLA      0.398800
      5 NA         77.9383   58.5974   36.8303 ns         1 CLA     -0.225500
      6 CBA        80.5903   58.6571   32.5378 a2         1 CLA     -0.135000
      7 CBB        79.9347   61.4522   43.3567 c0         1 CLA     -0.395200
      8 CBC        71.8593   56.0595   41.5338 a3         1 CLA     -0.037700
      9 CBD        76.2636   56.9298   33.7800 a1         1 CLA     -0.053900
     10 NB         77.7871   60.0573   39.3443 nm         1 CLA     -0.295700
     11 OBD        74.1432   55.9700   32.9028 o2         1 CLA     -0.494600
     12 CGA        80.7867   57.2623   31.9701 c4         1 CLA      0.827000
     13 CGD        77.1461   55.7395   33.3996 c4         1 CLA      0.655300
     14 ND         75.1063   57.8573   36.9854 nm         1 CLA     -0.291600
     15 CED        77.6931   53.3842   33.5950 a3         1 CLA      0.005400
     16 CHA        76.6171   57.4925   35.1030 cs         1 CLA     -0.123800
     17 CHB        79.7969   59.6581   38.0289 aa         1 CLA     -0.291900
     18 CHC        76.3307   60.0781   41.4014 aa         1 CLA     -0.090400
     19 CHD        73.0980   57.7726   38.4552 aa         1 CLA     -0.052000
     20 CMA        81.3481   57.4934   36.4182 a3         1 CLA     -0.230700
     21 CMB        81.0934   61.4350   40.3086 a3         1 CLA     -0.180800
     22 CMC        73.8711   59.3767   43.3307 a3         1 CLA     -0.134000
     23 CMD        71.8910   56.2375   35.8872 a3         1 CLA     -0.141100
     24 C1         81.6452   55.1692   32.7408 a2         1 CLA      0.023000
     25 C1A        77.8778   58.0485   35.5235 ac         1 CLA     -0.015100
     26 C1B        79.1013   60.1771   39.1312 cr         1 CLA      0.054700
     27 C1C        75.1737   59.3771   40.9675 cn         1 CLA     -0.005600
     28 C1D        73.7736   57.5294   37.2078 ap         1 CLA     -0.047300
     29 O1A        80.6606   56.8236   30.8290 o2         1 CLA     -0.610800
     30 O1D        77.8782   55.8165   32.3790 o2         1 CLA     -0.558200
     31 C2         82.4607   54.6037   33.8410 c8         1 CLA     -0.325100
     32 C2A        79.3048   57.9332   34.7937 a1         1 CLA      0.098600
     33 C2B        79.6599   60.8918   40.2911 cb         1 CLA      0.088500
     34 C2C        74.0127   59.0052   41.7956 cb         1 CLA      0.053700
     35 C2D        73.2497   56.8847   36.0485 cb         1 CLA      0.058900
     36 O2A        81.3692   56.5406   33.0034 o1         1 CLA     -0.437200
     37 O2D        76.8799   54.5097   34.0761 o1         1 CLA     -0.357600
     38 C3         83.6634   54.1136   33.6246 c5         1 CLA      0.031200
     39 C3A        80.2415   58.5143   35.9129 a1         1 CLA      0.166800
     40 C3B        78.6989   60.8905   41.3030 cb         1 CLA      0.035000
     41 C3C        73.1887   58.1945   41.0037 cb         1 CLA     -0.089900
     42 C3D        74.3235   56.8521   35.1337 cb         1 CLA     -0.035900
     43 C4         83.8477   52.6177   33.4454 a3         1 CLA     -0.053300
     44 C4A        79.2785   58.9327   37.0134 ac         1 CLA      0.001800
     45 C4B        77.5205   60.4276   40.6765 cn         1 CLA     -0.020900
     46 C4C        73.7173   58.2564   39.6269 cr         1 CLA     -0.044400
     47 C4D        75.4106   57.4643   35.8238 c6         1 CLA     -0.046000
     48 C5         84.8526   55.0537   33.3847 a2         1 CLA     -0.070400
     49 C6         85.0111   56.4230   34.0408 a2         1 CLA      0.043900
     50 C7         85.4319   56.1937   35.5357 a2         1 CLA     -0.150000
     51 C8         85.3237   57.4832   36.4132 a1         1 CLA      0.064200
     52 C9         86.2165   58.5565   35.7784 a3         1 CLA     -0.259300
     53 C10        85.6336   57.2476   37.8969 a2         1 CLA     -0.071900
     54 C11        85.3523   58.4320   38.8266 a2         1 CLA      0.014500
     55 C12        85.3974   58.1241   40.3166 a2         1 CLA     -0.112100
     56 C13        85.0766   59.3732   41.1156 a1         1 CLA      0.089200
     57 C14        86.2537   60.4556   41.0237 a3         1 CLA     -0.239100
     58 C15        84.7194   59.1464   42.5999 a2         1 CLA     -0.102200
     59 C16        83.5048   58.3190   42.9937 a2         1 CLA      0.023900
     60 C17        83.3942   58.0421   44.5419 a2         1 CLA     -0.105700
     61 C18        84.1564   56.7309   44.9404 a1         1 CLA      0.206800
     62 C19        84.1790   56.5945   46.4977 a3         1 CLA     -0.280100
     63 C20        83.6472   55.4116   44.2825 a3         1 CLA     -0.280100
     64 NC         74.9829   58.8767   39.7217 nx         1 CLA     -0.309200
     65 MG         76.4994   59.0534   38.1725 mg         1 CLA      0.895000
     66 HMD3       71.1701   57.0458   35.8276 dc         1 CLA      0.064300
     67 HMD2       71.8293   55.6840   34.9867 dc         1 CLA      0.064300
     68 HMD1       71.7616   55.6834   36.7790 dc         1 CLA      0.064300
     69 HMC3       72.8473   59.3235   43.5444 dc         1 CLA      0.052100
     70 HMC2       74.3679   58.6742   44.0152 dc         1 CLA      0.052100
     71 HMC1       74.1905   60.4078   43.4006 dc         1 CLA      0.052100
     72 HMB3       81.5935   60.8094   40.9598 dc         1 CLA      0.063600
     73 HMB2       81.5700   61.4979   39.3341 dc         1 CLA      0.063600
     74 HMB1       81.1255   62.4876   40.7028 dc         1 CLA      0.063600
     75 HMA3       81.8599   57.1556   35.5176 dc         1 CLA      0.058300
     76 HMA2       81.9519   58.0632   37.1099 dc         1 CLA      0.058300
     77 HMA1       80.7295   56.7965   36.8958 dc         1 CLA      0.058300
     78 HED3       78.7152   53.4665   33.7844 dc         1 CLA      0.079300
     79 HED2       77.3418   52.5154   34.0894 dc         1 CLA      0.079300
     80 HED1       77.5211   53.3134   32.4960 dc         1 CLA      0.079300
     81 HBC3       72.6482   55.7220   42.2269 dc         1 CLA      0.016300
     82 HBC2       70.9295   55.6652   41.9110 dc         1 CLA      0.016300
     83 HBC1       72.0778   55.6503   40.5459 dc         1 CLA      0.016300
     84 HBB2       79.9405   61.9307   44.3858 da         1 CLA      0.183000
     85 HBB1       80.9007   61.2949   42.8478 da         1 CLA      0.183000
     86 HBA2       80.4628   59.3059   31.5988 dc         1 CLA      0.029400
     87 HBA1       81.5212   59.1203   33.0354 dc         1 CLA      0.029400
     88 HAC2       71.8103   57.7210   42.5852 dc         1 CLA      0.029300
     89 HAC1       71.0400   58.0323   40.9913 dc         1 CLA      0.029300
     90 HAA2       78.4958   58.5265   32.9164 dc         1 CLA      0.028700
     91 HAA1       79.3378   59.8527   33.7614 dc         1 CLA      0.028700
     92 H203       83.9060   54.5379   44.8797 dc         1 CLA      0.065600
     93 H202       82.5944   55.5499   44.1696 dc         1 CLA      0.065600
     94 H201       84.1661   55.4149   43.3148 dc         1 CLA      0.065600
     95 H193       84.9776   55.9809   46.6819 dc         1 CLA      0.065600
     96 H192       84.4152   57.4987   47.0743 dc         1 CLA      0.065600
     97 H191       83.2782   56.0144   46.8953 dc         1 CLA      0.065600
     98 H172       83.7236   58.8533   45.2759 dc         1 CLA      0.027600
     99 H171       82.3714   57.7831   44.7810 dc         1 CLA      0.027600
    100 H162       82.5617   58.7117   42.5762 dc         1 CLA      0.002900
    101 H161       83.5912   57.4780   42.4294 dc         1 CLA      0.002900
    102 H152       85.5524   58.6683   43.0341 dc         1 CLA      0.029100
    103 H151       84.6364   60.1047   43.0940 dc         1 CLA      0.029100
    104 H143       86.1238   61.3118   41.6569 dc         1 CLA      0.063600
    105 H142       87.1839   60.0919   41.3616 dc         1 CLA      0.063600
    106 H141       86.2450   60.9021   40.0074 dc         1 CLA      0.063600
    107 H122       84.5719   57.4215   40.5443 dc         1 CLA      0.032500
    108 H121       86.2901   57.5136   40.5313 dc         1 CLA      0.032500
    109 H112       86.1276   59.1308   38.5584 dc         1 CLA      0.006600
    110 H111       84.3157   58.8782   38.7077 dc         1 CLA      0.006600
    111 H102       85.2341   56.3055   38.3053 dc         1 CLA      0.024100
    112 H101       86.7070   57.1264   37.8596 dc         1 CLA      0.024100
    113 HHD        72.0713   57.4372   38.4598 da         1 CLA      0.174300
    114 HHC        76.2838   60.3005   42.5098 da         1 CLA      0.136800
    115 HHB        80.8729   59.8459   38.0651 da         1 CLA      0.138300
    116 HBD        76.3309   57.7952   33.0529 dc         1 CLA      0.107700
    117 HAB        77.8524   61.4724   43.2767 da         1 CLA      0.155200
    118 H93        87.2613   58.3119   35.6437 dc         1 CLA      0.069500
    119 H92        85.8734   58.7945   34.7893 dc         1 CLA      0.069500
    120 H91        86.2672   59.4845   36.4079 dc         1 CLA      0.069500
    121 H8         84.3398   57.8596   36.1629 dc         1 CLA      0.029300
    122 H72        84.7482   55.3841   35.9582 dc         1 CLA      0.044400
    123 H71        86.4404   55.8085   35.5028 dc         1 CLA      0.044400
    124 H62        85.8345   56.9791   33.6208 dc         1 CLA      0.015600
    125 H61        84.0173   56.8984   33.9824 dc         1 CLA      0.015600
    126 H52        85.7816   54.5006   33.4783 dc         1 CLA      0.033200
    127 H51        84.6807   55.1423   32.3107 dc         1 CLA      0.033200
    128 H43        84.2108   52.5623   32.3084 dc         1 CLA      0.037000
    129 H42        84.7202   52.3607   34.0127 dc         1 CLA      0.037000
    130 H41        82.9872   52.0404   33.6828 dc         1 CLA      0.037000
    131 H3A        80.6931   59.4632   35.6005 dc         1 CLA      0.041100
    132 H2A        79.5137   56.8742   34.5656 dc         1 CLA      0.083100
    133 H2         82.1570   54.9122   34.7961 da         1 CLA      0.180900
    134 H18        85.1787   56.7755   44.5424 dc         1 CLA     -0.003900
    135 H13        84.2228   59.8284   40.6992 dc         1 CLA      0.019700
    136 H12        80.6238   54.7293   32.7092 dc         1 CLA      0.120400
    137 H11        82.0267   54.9294   31.6607 dc         1 CLA      0.120400
    138 C1         69.0691   61.0691   48.6303 Z1         2 LUT      0.509236
    139 C2         68.7005   61.7411   49.9149 Z2         2 LUT     -0.434695
    140 C3         67.2865   62.3887   50.0339 Z3         2 LUT      0.437453
    141 O3         67.1873   63.1491   51.2292 S1         2 LUT     -0.547129
    142 C4         67.0736   63.2998   48.8298 Z4         2 LUT     -0.468603
    143 C5         67.6011   62.7744   47.5180 Z5         2 LUT      0.279246
    144 C6         68.4343   61.7606   47.4133 Z6         2 LUT     -0.305473
    145 C7         69.1669   61.3683   46.1777 Z7         2 LUT      0.069402
    146 C8         69.8952   62.1531   45.3405 Z8         2 LUT     -0.191631
    147 C9         70.5270   61.8015   44.0664 Z9         2 LUT      0.196698
    148 C10        71.5286   62.6480   43.6627 Y1         2 LUT     -0.208611
    149 C11        72.3717   62.5541   42.5263 Y2         2 LUT      0.030784
    150 C12        73.4988   63.3811   42.3905 Y3         2 LUT     -0.220316
    151 C13        74.2680   63.2684   41.2052 Y4         2 LUT      0.215937
    152 C14        75.5640   63.7630   41.3942 Y5         2 LUT     -0.185793
    153 C15        76.7679   63.8643   40.5484 Y6         2 LUT     -0.057835
    154 C16        68.5644   59.6590   48.7230 Y7         2 LUT     -0.405615
    155 C17        70.6699   60.9092   48.6246 Y7         2 LUT     -0.405615
    156 C18        67.2735   63.8186   46.4108 Y9         2 LUT     -0.369639
    157 C19        69.9264   60.6140   43.3764 W1         2 LUT     -0.333362
    158 C20        73.8656   62.5579   39.9290 W2         2 LUT     -0.323439
    159 C21        88.1835   65.7339   34.0040 Z1         2 LUT      0.406104
    160 C22        88.6590   65.0561   32.6731 Z2         2 LUT     -0.404965
    161 C23        88.7209   66.1098   31.4884 Z3         2 LUT      0.391255
    162 O23        88.8875   65.1708   30.4068 S1         2 LUT     -0.528210
    163 C24        87.4099   66.9049   31.4896 W6         2 LUT     -0.258361
    164 C25        86.4139   66.8218   32.4372 Z5         2 LUT      0.133546
    165 C26        86.5793   66.0413   33.7896 W8         2 LUT     -0.147008
    166 C27        85.8688   66.6518   34.9607 Z7         2 LUT      0.023843
    167 C28        84.6311   66.2629   35.4828 Z8         2 LUT     -0.216987
    168 C29        84.0521   66.5912   36.7524 Z9         2 LUT      0.206524
    169 C30        82.8388   65.9268   37.1075 Y1         2 LUT     -0.215556
    170 C31        82.1464   66.0246   38.4004 Y2         2 LUT      0.025142
    171 C32        80.9199   65.3819   38.5593 Y3         2 LUT     -0.212209
    172 C33        79.9461   65.5599   39.6464 Y4         2 LUT      0.240937
    173 C34        78.8812   64.7685   39.7164 Y5         2 LUT     -0.218862
    174 C35        77.8749   64.6761   40.7068 Y6         2 LUT     -0.023547
    175 C36        88.9848   67.0057   34.4776 Y7         2 LUT     -0.393485
    176 C37        88.3864   64.5703   35.0160 Y7         2 LUT     -0.393485
    177 C38        85.1930   67.5618   32.1985 Y9         2 LUT     -0.387526
    178 C39        84.8204   67.5678   37.6152 W1         2 LUT     -0.322618
    179 C40        80.3704   66.5412   40.6348 W2         2 LUT     -0.358472
    180 H403       81.3960   66.4811   40.8903 R7         2 LUT      0.097720
    181 H402       80.3635   67.5573   40.1784 R7         2 LUT      0.097720
    182 H401       79.8749   66.4881   41.6143 R7         2 LUT      0.097720
    183 H393       85.1629   68.4356   37.0993 R4         2 LUT      0.082505
    184 H392       84.2179   67.9005   38.4325 R4         2 LUT      0.082505
    185 H391       85.6134   67.1098   38.1344 R4         2 LUT      0.082505
    186 H383       85.2359   68.5992   32.5604 R1         2 LUT      0.104030
    187 H382       84.8712   67.6426   31.1329 R1         2 LUT      0.104030
    188 H381       84.3716   67.0553   32.7027 R1         2 LUT      0.104030
    189 H373       89.4566   64.4441   35.2243 T4         2 LUT      0.089537
    190 H372       88.0351   64.8058   36.0597 T4         2 LUT      0.089537
    191 H371       87.9262   63.6330   34.5653 T4         2 LUT      0.089537
    192 H363       88.6881   67.2260   35.5107 T4         2 LUT      0.089537
    193 H362       90.0441   66.8667   34.3787 T4         2 LUT      0.089537
    194 H361       88.7843   67.8905   33.8169 T4         2 LUT      0.089537
    195 H222       89.6592   64.6668   32.7352 U2         2 LUT      0.127376
    196 H221       87.9329   64.2151   32.4937 U2         2 LUT      0.127376
    197 H203       73.4558   61.5722   40.1739 R7         2 LUT      0.087068
    198 H202       73.2270   63.2142   39.2939 R7         2 LUT      0.087068
    199 H201       74.6919   62.3880   39.3047 R7         2 LUT      0.087068
    200 H193       70.4053   60.3111   42.4258 R4         2 LUT      0.089716
    201 H192       69.8911   59.7769   44.0901 R4         2 LUT      0.089716
    202 H191       68.8876   60.8920   43.1984 R4         2 LUT      0.089716
    203 H183       67.9983   64.6364   46.4884 R1         2 LUT      0.094572
    204 H182       67.4017   63.3782   45.3977 R1         2 LUT      0.094572
    205 H181       66.2826   64.2781   46.4448 R1         2 LUT      0.094572
    206 H173       71.0907   60.3666   49.4569 T4         2 LUT      0.093752
    207 H172       70.9819   60.4476   47.6756 T4         2 LUT      0.093752
    208 H171       71.2611   61.8805   48.5926 T4         2 LUT      0.093752
    209 H163       69.1674   59.1464   49.5195 T4         2 LUT      0.093752
    210 H162       67.5217   59.4973   49.0121 T4         2 LUT      0.093752
    211 H161       68.7215   59.0473   47.8714 T4         2 LUT      0.093752
    212 HO3        66.9446   62.5911   52.0074 Q1         2 LUT      0.300121
    213 H8         70.1317   63.1250   45.7395 U7         2 LUT      0.080784
    214 H7         69.0239   60.3128   46.0206 U6         2 LUT      0.042190
    215 H42        65.9813   63.3992   48.7177 U5         2 LUT      0.145166
    216 H41        67.5575   64.2335   49.0814 U5         2 LUT      0.145166
    217 H35        77.8965   65.3821   41.5106 T3         2 LUT      0.077919
    218 H34        78.7946   63.9792   38.8882 T2         2 LUT      0.073626
    219 H32        80.6247   64.7340   37.8020 T1         2 LUT      0.092510
    220 H31        82.5993   66.7241   39.0788 U9         2 LUT      0.070048
    221 H30        82.5287   65.2309   36.2936 U8         2 LUT      0.085442
    222 H3         66.5401   61.5447   49.8983 U3         2 LUT     -0.031596
    223 H28        84.1349   65.5219   34.8893 U7         2 LUT      0.084728
    224 H27        86.4421   67.3811   35.4984 U6         2 LUT      0.087291
    225 H26        86.0137   65.1168   33.5747 Q6         2 LUT      0.075325
    226 H24        87.2063   67.4592   30.5483 Q5         2 LUT      0.094482
    227 H23        89.7222   66.6361   31.5451 U3         2 LUT     -0.024869
    228 H22        68.9896   61.1931   50.8004 U2         2 LUT      0.127376
    229 H21        69.3813   62.5843   50.0390 U2         2 LUT      0.127376
    230 H15        76.8212   63.3170   39.6477 T3         2 LUT      0.093200
    231 H14        75.8387   64.0231   42.4608 T2         2 LUT      0.068865
    232 H12        73.7945   63.9102   43.2956 T1         2 LUT      0.095507
    233 H11        72.0953   61.8680   41.7357 U9         2 LUT      0.068930
    234 H10        71.6206   63.5476   44.2875 U8         2 LUT      0.083911
    235 H1         88.7421   65.4984   29.4953 Q1         2 LUT      0.297311
@<TRIPOS>BOND
    1     6     1 1
    2     7     2 1
    3     8     3 1
    4     9     4 1
    5    11     4 1
    6    12     6 1
    7    13     9 1
    8    16     9 1
    9    25     5 1
   10    25    16 1
   11    26    10 1
   12    26    17 1
   13    27    18 1
   14    28    14 1
   15    28    19 1
   16    29    12 1
   17    30    13 1
   18    31    24 1
   19    32     1 1
   20    32    25 1
   21    33    21 1
   22    33    26 1
   23    34    22 1
   24    34    27 1
   25    35    23 1
   26    35    28 1
   27    36    12 1
   28    36    24 1
   29    37    13 1
   30    37    15 1
   31    38    31 1
   32    39    20 1
   33    39    32 1
   34    40     2 1
   35    40    33 1
   36    41     3 1
   37    41    34 1
   38    42     4 1
   39    42    35 1
   40    43    38 1
   41    44     5 1
   42    44    17 1
   43    44    39 1
   44    45    10 1
   45    45    18 1
   46    45    40 1
   47    46    19 1
   48    46    41 1
   49    47    14 1
   50    47    16 1
   51    47    42 1
   52    48    38 1
   53    49    48 1
   54    50    49 1
   55    51    50 1
   56    52    51 1
   57    53    51 1
   58    54    53 1
   59    55    54 1
   60    56    55 1
   61    57    56 1
   62    58    56 1
   63    59    58 1
   64    60    59 1
   65    61    60 1
   66    62    61 1
   67    63    61 1
   68    64    27 1
   69    64    46 1
   70    65     5 1
   71    65    10 1
   72    65    64 1
   73    65    14 1
   74    66    23 1
   75    67    23 1
   76    68    23 1
   77    69    22 1
   78    70    22 1
   79    71    22 1
   80    72    21 1
   81    73    21 1
   82    74    21 1
   83    75    20 1
   84    76    20 1
   85    77    20 1
   86    78    15 1
   87    79    15 1
   88    80    15 1
   89    81     8 1
   90    82     8 1
   91    83     8 1
   92    84     7 1
   93    85     7 1
   94    86     6 1
   95    87     6 1
   96    88     3 1
   97    89     3 1
   98    90     1 1
   99    91     1 1
  100    92    63 1
  101    93    63 1
  102    94    63 1
  103    95    62 1
  104    96    62 1
  105    97    62 1
  106    98    60 1
  107    99    60 1
  108   100    59 1
  109   101    59 1
  110   102    58 1
  111   103    58 1
  112   104    57 1
  113   105    57 1
  114   106    57 1
  115   107    55 1
  116   108    55 1
  117   109    54 1
  118   110    54 1
  119   111    53 1
  120   112    53 1
  121   113    19 1
  122   114    18 1
  123   115    17 1
  124   116     9 1
  125   117     2 1
  126   118    52 1
  127   119    52 1
  128   120    52 1
  129   121    51 1
  130   122    50 1
  131   123    50 1
  132   124    49 1
  133   125    49 1
  134   126    48 1
  135   127    48 1
  136   128    43 1
  137   129    43 1
  138   130    43 1
  139   131    39 1
  140   132    32 1
  141   133    31 1
  142   134    61 1
  143   135    56 1
  144   136    24 1
  145   137    24 1
  146   139   138 1
  147   140   139 1
  148   141   140 1
  149   142   140 1
  150   143   142 1
  151   144   138 1
  152   144   143 1
  153   145   144 1
  154   146   145 1
  155   147   146 1
  156   148   147 1
  157   149   148 1
  158   150   149 1
  159   151   150 1
  160   152   151 1
  161   153   152 1
  162   154   138 1
  163   155   138 1
  164   156   143 1
  165   157   147 1
  166   158   151 1
  167   160   159 1
  168   161   160 1
  169   162   161 1
  170   163   161 1
  171   164   163 1
  172   165   159 1
  173   165   164 1
  174   166   165 1
  175   167   166 1
  176   168   167 1
  177   169   168 1
  178   170   169 1
  179   171   170 1
  180   172   171 1
  181   173   172 1
  182   174   153 1
  183   174   173 1
  184   175   159 1
  185   176   159 1
  186   177   164 1
  187   178   168 1
  188   179   172 1
  189   180   179 1
  190   181   179 1
  191   182   179 1
  192   183   178 1
  193   184   178 1
  194   185   178 1
  195   186   177 1
  196   187   177 1
  197   188   177 1
  198   189   176 1
  199   190   176 1
  200   191   176 1
  201   192   175 1
  202   193   175 1
  203   194   175 1
  204   195   160 1
  205   196   160 1
  206   197   158 1
  207   198   158 1
  208   199   158 1
  209   200   157 1
  210   201   157 1
  211   202   157 1
  212   203   156 1
  213   204   156 1
  214   205   156 1
  215   206   155 1
  216   207   155 1
  217   208   155 1
  218   209   154 1
  219   210   154 1
  220   211   154 1
  221   212   141 1
  222   213   146 1
  223   214   145 1
  224   215   142 1
  225   216   142 1
  226   217   174 1
  227   218   173 1
  228   219   171 1
  229   220   170 1
  230   221   169 1
  231   222   140 1
  232   223   167 1
  233   224   166 1
  234   225   165 1
  235   226   163 1
  236   227   161 1
  237   228   139 1
  238   229   139 1
  239   230   153 1
  240   231   152 1
  241   232   150 1
  242   233   149 1
  243   234   148 1
  244   235   162 1
  245   65    153 1
  246   65    174 1
@<TRIPOS>SUBSTRUCTURE
      1 CLA               1 ****               0 ****  **** 
      2 LUT             138 ****               0 ****  **** 
