@<TRIPOS>MOLECULE
Cpptraj generated mol2 file.
  235   246     2     0     0
SMALL
USER_CHARGES


@<TRIPOS>ATOM
      1 CAA        79.9139   57.6149   34.8153 a2         1 CLA     -0.055900
      2 CAB        79.8987   61.7526   43.6055 c8         1 CLA     -0.148500
      3 CAC        73.0104   57.4923   43.1263 a2         1 CLA     -0.012600
      4 CAD        75.7949   55.1164   35.9311 ck         1 CLA      0.398800
      5 NA         78.8772   58.2044   38.1336 ns         1 CLA     -0.225500
      6 CBA        81.3008   57.3925   34.1124 a2         1 CLA     -0.135000
      7 CBB        80.9185   61.4320   44.4302 c0         1 CLA     -0.395200
      8 CBC        73.2023   55.9918   43.1936 a3         1 CLA     -0.037700
      9 CBD        77.2729   55.6627   35.6854 a1         1 CLA     -0.053900
     10 NB         78.7244   59.7820   40.5979 nm         1 CLA     -0.295700
     11 OBD        75.2189   54.3137   35.1801 o2         1 CLA     -0.494600
     12 CGA        81.5642   56.0598   33.6196 c4         1 CLA      0.827000
     13 CGD        78.2883   54.5451   35.7213 c4         1 CLA      0.655300
     14 ND         76.0433   57.3153   38.6486 nm         1 CLA     -0.291600
     15 CED        78.9293   52.6598   37.2991 a3         1 CLA      0.005400
     16 CHA        77.5268   56.6430   36.7957 cs         1 CLA     -0.123800
     17 CHB        80.6449   59.5424   39.1341 aa         1 CLA     -0.291900
     18 CHC        77.4429   60.0244   42.7123 aa         1 CLA     -0.090400
     19 CHD        74.1241   57.3888   40.1441 aa         1 CLA     -0.052000
     20 CMA        82.2798   57.2669   37.6299 a3         1 CLA     -0.230700
     21 CMB        82.0856   61.3549   41.2290 a3         1 CLA     -0.180800
     22 CMC        75.1605   59.3641   44.7628 a3         1 CLA     -0.134000
     23 CMD        72.8461   55.4096   38.0294 a3         1 CLA     -0.141100
     24 C1         82.4532   53.9450   34.2749 a2         1 CLA      0.023000
     25 C1A        78.6968   57.3764   37.0603 ac         1 CLA     -0.015100
     26 C1B        80.0197   60.1012   40.2696 cr         1 CLA      0.054700
     27 C1C        76.2775   59.2663   42.4097 cn         1 CLA     -0.005600
     28 C1D        74.7375   56.9025   38.9853 ap         1 CLA     -0.047300
     29 O1A        81.2720   55.6529   32.5205 o2         1 CLA     -0.610800
     30 O1D        79.0021   54.0979   34.8380 o2         1 CLA     -0.558200
     31 C2         82.8110   53.1429   35.4957 c8         1 CLA     -0.325100
     32 C2A        80.0150   57.2154   36.2876 a1         1 CLA      0.098600
     33 C2B        80.6383   60.8787   41.2841 cb         1 CLA      0.088500
     34 C2C        75.1307   58.9930   43.2856 cb         1 CLA      0.053700
     35 C2D        74.2441   56.0063   37.9354 cb         1 CLA      0.058900
     36 O2A        82.1870   55.3561   34.6395 o1         1 CLA     -0.437200
     37 O2D        78.2942   53.9918   36.9993 o1         1 CLA     -0.357600
     38 C3         84.0110   52.5212   35.6738 c5         1 CLA      0.031200
     39 C3A        81.0232   58.0517   37.0973 a1         1 CLA      0.166800
     40 C3B        79.6877   61.0242   42.3231 cb         1 CLA      0.035000
     41 C3C        74.2627   58.2086   42.5759 cb         1 CLA     -0.089900
     42 C3D        75.3204   55.7765   37.1145 cb         1 CLA     -0.035900
     43 C4         84.1624   51.0216   35.3760 a3         1 CLA     -0.053300
     44 C4A        80.0965   58.7233   38.1422 ac         1 CLA      0.001800
     45 C4B        78.5148   60.2593   41.9105 cn         1 CLA     -0.020900
     46 C4C        74.7825   58.0756   41.2246 cr         1 CLA     -0.044400
     47 C4D        76.3768   56.6501   37.5075 c6         1 CLA     -0.046000
     48 C5         85.2675   53.0703   36.3347 a2         1 CLA     -0.070400
     49 C6         85.0146   53.5701   37.7174 a2         1 CLA      0.043900
     50 C7         86.3444   54.1128   38.2701 a2         1 CLA     -0.150000
     51 C8         86.4361   55.0212   39.5089 a1         1 CLA      0.064200
     52 C9         85.7979   56.4515   39.1969 a3         1 CLA     -0.259300
     53 C10        87.9038   55.0873   40.0168 a2         1 CLA     -0.071900
     54 C11        88.0563   55.7511   41.3879 a2         1 CLA      0.014500
     55 C12        87.4396   54.9113   42.5724 a2         1 CLA     -0.112100
     56 C13        87.7927   55.4751   44.0094 a1         1 CLA      0.089200
     57 C14        87.0730   54.6040   45.0141 a3         1 CLA     -0.239100
     58 C15        87.7494   56.9864   44.1703 a2         1 CLA     -0.102200
     59 C16        86.3754   57.6033   43.9818 a2         1 CLA      0.023900
     60 C17        85.6143   57.6149   45.3523 a2         1 CLA     -0.105700
     61 C18        84.3025   58.4721   45.3848 a1         1 CLA      0.206800
     62 C19        83.5330   58.3991   46.8759 a3         1 CLA     -0.280100
     63 C20        84.4570   59.9689   44.9889 a3         1 CLA     -0.280100
     64 NC         76.0285   58.6678   41.1405 nx         1 CLA     -0.309200
     65 MG         77.4014   58.6258   39.6006 mg         1 CLA      0.895000
     66 HMD3       72.7448   54.6028   37.3537 dc         1 CLA      0.064300
     67 HMD2       72.6150   54.8987   38.9398 dc         1 CLA      0.064300
     68 HMD1       72.0498   56.1069   37.7945 dc         1 CLA      0.064300
     69 HMC3       74.4176   58.7807   45.3076 dc         1 CLA      0.052100
     70 HMC2       76.1347   58.9156   44.9741 dc         1 CLA      0.052100
     71 HMC1       75.1467   60.3572   45.0821 dc         1 CLA      0.052100
     72 HMB3       82.3437   62.0525   40.3682 dc         1 CLA      0.063600
     73 HMB2       82.3426   61.8822   42.1697 dc         1 CLA      0.063600
     74 HMB1       82.7246   60.4592   41.1811 dc         1 CLA      0.063600
     75 HMA3       82.9387   57.9755   38.1565 dc         1 CLA      0.058300
     76 HMA2       81.8332   56.4780   38.2561 dc         1 CLA      0.058300
     77 HMA1       82.8008   56.8108   36.7641 dc         1 CLA      0.058300
     78 HED3       80.0207   52.7038   37.3035 dc         1 CLA      0.079300
     79 HED2       78.5328   52.3445   38.2860 dc         1 CLA      0.079300
     80 HED1       78.5850   51.9529   36.5460 dc         1 CLA      0.079300
     81 HBC3       73.2580   55.7292   42.1599 dc         1 CLA      0.016300
     82 HBC2       74.2327   55.8272   43.5417 dc         1 CLA      0.016300
     83 HBC1       72.3716   55.4034   43.6701 dc         1 CLA      0.016300
     84 HBB2       81.1003   62.0774   45.2725 da         1 CLA      0.183000
     85 HBB1       81.5892   60.5553   44.2742 da         1 CLA      0.183000
     86 HBA2       81.3896   57.9186   33.2138 dc         1 CLA      0.029400
     87 HBA1       82.0721   57.7300   34.7648 dc         1 CLA      0.029400
     88 HAC2       72.7695   57.7972   44.1556 dc         1 CLA      0.029300
     89 HAC1       72.1752   57.5635   42.4981 dc         1 CLA      0.029300
     90 HAA2       79.1695   56.9908   34.3703 dc         1 CLA      0.028700
     91 HAA1       79.8882   58.6539   34.6995 dc         1 CLA      0.028700
     92 H203       85.1633   60.4427   45.7142 dc         1 CLA      0.065600
     93 H202       84.8771   60.1372   43.9604 dc         1 CLA      0.065600
     94 H201       83.5332   60.5215   45.0786 dc         1 CLA      0.065600
     95 H193       84.1339   58.8302   47.6339 dc         1 CLA      0.065600
     96 H192       82.6615   59.0316   46.6824 dc         1 CLA      0.065600
     97 H191       83.3016   57.4037   47.1640 dc         1 CLA      0.065600
     98 H172       85.3945   56.5472   45.6695 dc         1 CLA      0.027600
     99 H171       86.2839   58.0731   46.0868 dc         1 CLA      0.027600
    100 H162       86.5153   58.6891   43.6781 dc         1 CLA      0.002900
    101 H161       85.7913   57.1425   43.3033 dc         1 CLA      0.002900
    102 H152       88.0976   57.1894   45.1081 dc         1 CLA      0.029100
    103 H151       88.3992   57.4825   43.4554 dc         1 CLA      0.029100
    104 H143       85.9558   54.5465   45.0572 dc         1 CLA      0.063600
    105 H142       87.4234   53.5682   45.0270 dc         1 CLA      0.063600
    106 H141       87.4389   54.9950   46.0197 dc         1 CLA      0.063600
    107 H122       86.3650   54.8131   42.4680 dc         1 CLA      0.032500
    108 H121       87.7537   53.9076   42.4844 dc         1 CLA      0.032500
    109 H112       89.0612   55.9591   41.5522 dc         1 CLA      0.006600
    110 H111       87.5592   56.6991   41.3556 dc         1 CLA      0.006600
    111 H102       88.2024   54.0009   40.0598 dc         1 CLA      0.024100
    112 H101       88.6514   55.4918   39.3104 dc         1 CLA      0.024100
    113 HHD        73.0869   57.1326   40.4198 da         1 CLA      0.174300
    114 HHC        77.5037   60.3782   43.7489 da         1 CLA      0.136800
    115 HHB        81.7234   59.8204   39.0588 da         1 CLA      0.138300
    116 HBD        77.1386   56.3082   34.8511 dc         1 CLA      0.107700
    117 HAB        79.1727   62.5579   43.8886 da         1 CLA      0.155200
    118 H93        85.6390   57.0501   40.0688 dc         1 CLA      0.069500
    119 H92        86.3775   57.1461   38.5908 dc         1 CLA      0.069500
    120 H91        84.7950   56.4214   38.8136 dc         1 CLA      0.069500
    121 H8         85.8182   54.5870   40.3194 dc         1 CLA      0.029300
    122 H72        86.9430   53.2123   38.4795 dc         1 CLA      0.044400
    123 H71        86.8363   54.7221   37.4592 dc         1 CLA      0.044400
    124 H62        84.2628   54.3324   37.8472 dc         1 CLA      0.015600
    125 H61        84.6979   52.6634   38.2441 dc         1 CLA      0.015600
    126 H52        86.0975   52.3518   36.5068 dc         1 CLA      0.033200
    127 H51        85.6310   53.8636   35.6884 dc         1 CLA      0.033200
    128 H43        84.3771   50.5263   36.2916 dc         1 CLA      0.037000
    129 H42        83.1355   50.6242   35.1443 dc         1 CLA      0.037000
    130 H41        84.7661   50.6357   34.4470 dc         1 CLA      0.037000
    131 H3A        81.3510   58.8264   36.4166 dc         1 CLA      0.041100
    132 H2A        80.2940   56.1832   36.3873 dc         1 CLA      0.083100
    133 H2         82.0628   53.0019   36.3017 da         1 CLA      0.180900
    134 H18        83.5143   58.0986   44.7050 dc         1 CLA     -0.003900
    135 H13        88.8811   55.3006   44.1983 dc         1 CLA      0.019700
    136 H12        81.4836   53.4103   33.9577 dc         1 CLA      0.120400
    137 H11        83.2198   53.7724   33.4865 dc         1 CLA      0.120400
    138 C1         69.6676   60.9742   50.4162 Z1         2 LUT      0.509236
    139 C2         68.1577   60.8211   50.9340 Z2         2 LUT     -0.434695
    140 C3         67.3362   62.1372   51.1940 Z3         2 LUT      0.437453
    141 O3         67.6222   62.6503   52.5268 S1         2 LUT     -0.547129
    142 C4         67.8745   63.1885   50.3492 Z4         2 LUT     -0.468603
    143 C5         68.6684   62.7932   49.1514 Z5         2 LUT      0.279246
    144 C6         69.6440   61.8969   49.1845 Z6         2 LUT     -0.305473
    145 C7         70.1573   61.4180   47.8493 Z7         2 LUT      0.069402
    146 C8         71.1477   61.9929   47.1161 Z8         2 LUT     -0.191631
    147 C9         71.5382   61.7264   45.7356 Z9         2 LUT      0.196698
    148 C10        72.6023   62.4933   45.2768 Y1         2 LUT     -0.208611
    149 C11        73.2368   62.5319   44.0898 Y2         2 LUT      0.030784
    150 C12        74.5201   62.9827   43.8573 Y3         2 LUT     -0.220316
    151 C13        75.2556   62.8017   42.6597 Y4         2 LUT      0.215937
    152 C14        76.4937   63.4089   42.5965 Y5         2 LUT     -0.185793
    153 C15        77.3921   63.4566   41.4957 Y6         2 LUT     -0.057835
    154 C16        70.1561   59.5120   50.2060 Y7         2 LUT     -0.405615
    155 C17        70.4801   61.6575   51.5072 Y7         2 LUT     -0.405615
    156 C18        68.0835   63.4750   47.9827 Y9         2 LUT     -0.369639
    157 C19        70.9197   60.6140   44.9865 W1         2 LUT     -0.333362
    158 C20        74.5901   62.4118   41.3546 W2         2 LUT     -0.323439
    159 C21        88.7401   64.9108   35.3169 Z1         2 LUT      0.406104
    160 C22        89.2618   63.9775   34.2049 Z2         2 LUT     -0.404965
    161 C23        89.2914   64.6620   32.8434 Z3         2 LUT      0.391255
    162 O23        89.5605   63.6034   31.8981 S1         2 LUT     -0.528210
    163 C24        88.0608   65.5182   32.7019 W6         2 LUT     -0.258361
    164 C25        87.0889   65.7556   33.5822 Z5         2 LUT      0.133546
    165 C26        87.2000   65.2684   35.0051 W8         2 LUT     -0.147008
    166 C27        86.5979   66.1454   36.0556 Z7         2 LUT      0.023843
    167 C28        85.3233   65.9596   36.5063 Z8         2 LUT     -0.216987
    168 C29        84.8306   66.4229   37.7681 Z9         2 LUT      0.206524
    169 C30        83.7573   65.6621   38.2664 Y1         2 LUT     -0.215556
    170 C31        82.9403   65.7792   39.4954 Y2         2 LUT      0.025142
    171 C32        81.8422   65.0311   39.6843 Y3         2 LUT     -0.212209
    172 C33        80.8226   65.1090   40.6994 Y4         2 LUT      0.240937
    173 C34        79.6685   64.2967   40.6300 Y5         2 LUT     -0.218862
    174 C35        78.5770   64.1320   41.5790 Y6         2 LUT     -0.023547
    175 C36        89.7089   66.0439   35.6951 Y7         2 LUT     -0.393485
    176 C37        88.7621   63.9786   36.5443 Y7         2 LUT     -0.393485
    177 C38        86.0041   66.7160   33.1883 Y9         2 LUT     -0.387526
    178 C39        85.4158   67.5689   38.5494 W1         2 LUT     -0.322618
    179 C40        81.0402   66.2376   41.6850 W2         2 LUT     -0.358472
    180 H403       80.3613   66.3404   42.5437 R7         2 LUT      0.097720
    181 H402       82.0742   66.3362   42.1545 R7         2 LUT      0.097720
    182 H401       80.9543   67.2356   41.1968 R7         2 LUT      0.097720
    183 H393       85.8212   68.3506   37.9585 R4         2 LUT      0.082505
    184 H392       84.6349   68.1095   38.9823 R4         2 LUT      0.082505
    185 H391       86.0518   67.2952   39.3494 R4         2 LUT      0.082505
    186 H383       85.0598   66.5046   33.7687 R1         2 LUT      0.104030
    187 H382       86.3384   67.6769   33.3100 R1         2 LUT      0.104030
    188 H381       85.7770   66.6202   32.1559 R1         2 LUT      0.104030
    189 H373       89.7189   63.5256   36.6999 T4         2 LUT      0.089537
    190 H372       88.5263   64.5813   37.4749 T4         2 LUT      0.089537
    191 H371       88.0711   63.1089   36.5648 T4         2 LUT      0.089537
    192 H363       89.3314   66.7009   36.5492 T4         2 LUT      0.089537
    193 H362       90.6669   65.4972   35.7480 T4         2 LUT      0.089537
    194 H361       89.9105   66.7740   34.9332 T4         2 LUT      0.089537
    195 H222       90.2255   63.5274   34.3924 U2         2 LUT      0.127376
    196 H221       88.6355   63.0159   34.1447 U2         2 LUT      0.127376
    197 H203       75.1253   62.8581   40.5715 R7         2 LUT      0.087068
    198 H202       74.5824   61.3411   41.2211 R7         2 LUT      0.087068
    199 H201       73.5731   62.7087   41.2609 R7         2 LUT      0.087068
    200 H193       70.8883   59.6357   45.5379 R4         2 LUT      0.089716
    201 H192       69.8580   60.8278   44.7081 R4         2 LUT      0.089716
    202 H191       71.3936   60.4005   44.0425 R4         2 LUT      0.089716
    203 H183       68.0370   64.5353   48.0118 R1         2 LUT      0.094572
    204 H182       68.6996   63.3036   47.0885 R1         2 LUT      0.094572
    205 H181       67.0945   63.0901   47.7577 R1         2 LUT      0.094572
    206 H173       71.4856   61.7783   51.1467 T4         2 LUT      0.093752
    207 H172       70.1350   62.6862   51.6545 T4         2 LUT      0.093752
    208 H171       70.4852   61.0531   52.3991 T4         2 LUT      0.093752
    209 H163       71.1499   59.6773   49.7049 T4         2 LUT      0.093752
    210 H162       70.2188   58.8963   51.0961 T4         2 LUT      0.093752
    211 H161       69.5373   58.8838   49.5616 T4         2 LUT      0.093752
    212 HO3        66.9240   62.3745   53.1479 Q1         2 LUT      0.300121
    213 H8         71.7205   62.7760   47.5496 U7         2 LUT      0.080784
    214 H7         69.6108   60.5128   47.5518 U6         2 LUT      0.042190
    215 H42        66.9983   63.8994   50.1283 U5         2 LUT      0.145166
    216 H41        68.5691   63.8406   50.8782 U5         2 LUT      0.145166
    217 H35        78.7205   64.5129   42.5583 T3         2 LUT      0.077919
    218 H34        79.6241   63.6521   39.7597 T2         2 LUT      0.073626
    219 H32        81.6292   64.3154   38.9268 T1         2 LUT      0.092510
    220 H31        83.1929   66.4929   40.2447 U9         2 LUT      0.070048
    221 H30        83.3533   64.8256   37.6658 U8         2 LUT      0.085442
    222 H3         66.2831   61.9165   51.0983 U3         2 LUT     -0.031596
    223 H28        84.5697   65.5407   35.8557 U7         2 LUT      0.084728
    224 H27        87.3175   66.6207   36.7694 U6         2 LUT      0.087291
    225 H26        86.7301   64.2586   35.1361 Q6         2 LUT      0.075325
    226 H24        88.1448   66.0870   31.7800 Q5         2 LUT      0.094482
    227 H23        90.1377   65.3182   32.9418 U3         2 LUT     -0.024869
    228 H22        67.5960   60.4246   50.0713 U2         2 LUT      0.127376
    229 H21        68.1870   60.2649   51.8628 U2         2 LUT      0.127376
    230 H15        77.2108   62.9866   40.5279 T3         2 LUT      0.093200
    231 H14        76.9274   63.9113   43.4676 T2         2 LUT      0.068865
    232 H12        74.9803   63.4817   44.7156 T1         2 LUT      0.095507
    233 H11        72.6692   61.9307   43.4042 U9         2 LUT      0.068930
    234 H10        72.9138   63.3057   45.9559 U8         2 LUT      0.083911
    235 H1         89.7259   63.9233   31.0312 Q1         2 LUT      0.297311
@<TRIPOS>BOND
    1     6     1 1
    2     7     2 1
    3     8     3 1
    4     9     4 1
    5    11     4 1
    6    12     6 1
    7    13     9 1
    8    16     9 1
    9    25     5 1
   10    25    16 1
   11    26    10 1
   12    26    17 1
   13    27    18 1
   14    28    14 1
   15    28    19 1
   16    29    12 1
   17    30    13 1
   18    31    24 1
   19    32     1 1
   20    32    25 1
   21    33    21 1
   22    33    26 1
   23    34    22 1
   24    34    27 1
   25    35    23 1
   26    35    28 1
   27    36    12 1
   28    36    24 1
   29    37    13 1
   30    37    15 1
   31    38    31 1
   32    39    20 1
   33    39    32 1
   34    40     2 1
   35    40    33 1
   36    41     3 1
   37    41    34 1
   38    42     4 1
   39    42    35 1
   40    43    38 1
   41    44     5 1
   42    44    17 1
   43    44    39 1
   44    45    10 1
   45    45    18 1
   46    45    40 1
   47    46    19 1
   48    46    41 1
   49    47    14 1
   50    47    16 1
   51    47    42 1
   52    48    38 1
   53    49    48 1
   54    50    49 1
   55    51    50 1
   56    52    51 1
   57    53    51 1
   58    54    53 1
   59    55    54 1
   60    56    55 1
   61    57    56 1
   62    58    56 1
   63    59    58 1
   64    60    59 1
   65    61    60 1
   66    62    61 1
   67    63    61 1
   68    64    27 1
   69    64    46 1
   70    65     5 1
   71    65    10 1
   72    65    64 1
   73    65    14 1
   74    66    23 1
   75    67    23 1
   76    68    23 1
   77    69    22 1
   78    70    22 1
   79    71    22 1
   80    72    21 1
   81    73    21 1
   82    74    21 1
   83    75    20 1
   84    76    20 1
   85    77    20 1
   86    78    15 1
   87    79    15 1
   88    80    15 1
   89    81     8 1
   90    82     8 1
   91    83     8 1
   92    84     7 1
   93    85     7 1
   94    86     6 1
   95    87     6 1
   96    88     3 1
   97    89     3 1
   98    90     1 1
   99    91     1 1
  100    92    63 1
  101    93    63 1
  102    94    63 1
  103    95    62 1
  104    96    62 1
  105    97    62 1
  106    98    60 1
  107    99    60 1
  108   100    59 1
  109   101    59 1
  110   102    58 1
  111   103    58 1
  112   104    57 1
  113   105    57 1
  114   106    57 1
  115   107    55 1
  116   108    55 1
  117   109    54 1
  118   110    54 1
  119   111    53 1
  120   112    53 1
  121   113    19 1
  122   114    18 1
  123   115    17 1
  124   116     9 1
  125   117     2 1
  126   118    52 1
  127   119    52 1
  128   120    52 1
  129   121    51 1
  130   122    50 1
  131   123    50 1
  132   124    49 1
  133   125    49 1
  134   126    48 1
  135   127    48 1
  136   128    43 1
  137   129    43 1
  138   130    43 1
  139   131    39 1
  140   132    32 1
  141   133    31 1
  142   134    61 1
  143   135    56 1
  144   136    24 1
  145   137    24 1
  146   139   138 1
  147   140   139 1
  148   141   140 1
  149   142   140 1
  150   143   142 1
  151   144   138 1
  152   144   143 1
  153   145   144 1
  154   146   145 1
  155   147   146 1
  156   148   147 1
  157   149   148 1
  158   150   149 1
  159   151   150 1
  160   152   151 1
  161   153   152 1
  162   154   138 1
  163   155   138 1
  164   156   143 1
  165   157   147 1
  166   158   151 1
  167   160   159 1
  168   161   160 1
  169   162   161 1
  170   163   161 1
  171   164   163 1
  172   165   159 1
  173   165   164 1
  174   166   165 1
  175   167   166 1
  176   168   167 1
  177   169   168 1
  178   170   169 1
  179   171   170 1
  180   172   171 1
  181   173   172 1
  182   174   153 1
  183   174   173 1
  184   175   159 1
  185   176   159 1
  186   177   164 1
  187   178   168 1
  188   179   172 1
  189   180   179 1
  190   181   179 1
  191   182   179 1
  192   183   178 1
  193   184   178 1
  194   185   178 1
  195   186   177 1
  196   187   177 1
  197   188   177 1
  198   189   176 1
  199   190   176 1
  200   191   176 1
  201   192   175 1
  202   193   175 1
  203   194   175 1
  204   195   160 1
  205   196   160 1
  206   197   158 1
  207   198   158 1
  208   199   158 1
  209   200   157 1
  210   201   157 1
  211   202   157 1
  212   203   156 1
  213   204   156 1
  214   205   156 1
  215   206   155 1
  216   207   155 1
  217   208   155 1
  218   209   154 1
  219   210   154 1
  220   211   154 1
  221   212   141 1
  222   213   146 1
  223   214   145 1
  224   215   142 1
  225   216   142 1
  226   217   174 1
  227   218   173 1
  228   219   171 1
  229   220   170 1
  230   221   169 1
  231   222   140 1
  232   223   167 1
  233   224   166 1
  234   225   165 1
  235   226   163 1
  236   227   161 1
  237   228   139 1
  238   229   139 1
  239   230   153 1
  240   231   152 1
  241   232   150 1
  242   233   149 1
  243   234   148 1
  244   235   162 1
  245   65    153 1
  246   65    174 1
@<TRIPOS>SUBSTRUCTURE
      1 CLA               1 ****               0 ****  **** 
      2 LUT             138 ****               0 ****  **** 
