@<TRIPOS>MOLECULE
Cpptraj generated mol2 file.
  235   246     2     0     0
SMALL
USER_CHARGES


@<TRIPOS>ATOM
      1 CAA        79.6099   58.5048   34.8631 a2         1 CLA     -0.055900
      2 CAB        79.5494   62.2072   43.9087 c8         1 CLA     -0.148500
      3 CAC        72.6880   58.1517   43.3326 a2         1 CLA     -0.012600
      4 CAD        75.6008   55.7083   35.9341 ck         1 CLA      0.398800
      5 NA         78.6524   58.7660   38.2569 ns         1 CLA     -0.225500
      6 CBA        81.0063   58.4674   34.0469 a2         1 CLA     -0.135000
      7 CBB        80.6365   62.1226   44.6981 c0         1 CLA     -0.395200
      8 CBC        72.8688   56.6720   43.6681 a3         1 CLA     -0.037700
      9 CBD        77.0618   56.3590   35.6279 a1         1 CLA     -0.053900
     10 NB         78.4241   60.2177   40.8763 nm         1 CLA     -0.295700
     11 OBD        75.1657   54.8135   35.2234 o2         1 CLA     -0.494600
     12 CGA        81.4320   57.0728   33.6693 c4         1 CLA      0.827000
     13 CGD        78.0827   55.3133   35.3420 c4         1 CLA      0.655300
     14 ND         75.9242   57.7794   38.8522 nm         1 CLA     -0.291600
     15 CED        79.0534   53.1430   36.0737 a3         1 CLA      0.005400
     16 CHA        77.3415   57.2559   36.8234 cs         1 CLA     -0.123800
     17 CHB        80.3048   60.1766   39.2263 aa         1 CLA     -0.291900
     18 CHC        77.0143   60.5119   42.8897 aa         1 CLA     -0.090400
     19 CHD        73.9919   57.6730   40.3316 aa         1 CLA     -0.052000
     20 CMA        82.1342   58.0782   37.7321 a3         1 CLA     -0.230700
     21 CMB        81.6366   62.0733   41.4921 a3         1 CLA     -0.180800
     22 CMC        74.7058   60.0291   44.8212 a3         1 CLA     -0.134000
     23 CMD        72.8793   55.5877   38.1217 a3         1 CLA     -0.141100
     24 C1         82.8736   55.2838   34.4735 a2         1 CLA      0.023000
     25 C1A        78.5295   57.9242   37.1616 ac         1 CLA     -0.015100
     26 C1B        79.6943   60.5601   40.4951 cr         1 CLA      0.054700
     27 C1C        75.8650   59.8981   42.5288 cn         1 CLA     -0.005600
     28 C1D        74.6978   57.2089   39.2208 ap         1 CLA     -0.047300
     29 O1A        81.3720   56.5335   32.5536 o2         1 CLA     -0.610800
     30 O1D        78.8719   55.3842   34.4193 o2         1 CLA     -0.558200
     31 C2         83.3026   54.6979   35.8088 c8         1 CLA     -0.325100
     32 C2A        79.7408   57.9249   36.3046 a1         1 CLA      0.098600
     33 C2B        80.3454   61.4082   41.5612 cb         1 CLA      0.088500
     34 C2C        74.7966   59.6039   43.3985 cb         1 CLA      0.053700
     35 C2D        74.1912   56.3214   38.1456 cb         1 CLA      0.058900
     36 O2A        82.1182   56.5081   34.7537 o1         1 CLA     -0.437200
     37 O2D        78.1438   54.2739   36.2520 o1         1 CLA     -0.357600
     38 C3         84.5058   54.0655   35.9509 c5         1 CLA      0.031200
     39 C3A        80.7464   58.7559   37.2265 a1         1 CLA      0.166800
     40 C3B        79.3796   61.5329   42.5845 cb         1 CLA      0.035000
     41 C3C        73.8741   58.8507   42.6679 cb         1 CLA     -0.089900
     42 C3D        75.1623   56.3218   37.1569 cb         1 CLA     -0.035900
     43 C4         84.8780   52.6202   35.6101 a3         1 CLA     -0.053300
     44 C4A        79.8187   59.2992   38.2717 ac         1 CLA      0.001800
     45 C4B        78.1824   60.7175   42.1193 cn         1 CLA     -0.020900
     46 C4C        74.4438   58.5776   41.3545 cr         1 CLA     -0.044400
     47 C4D        76.1822   57.1584   37.6495 c6         1 CLA     -0.046000
     48 C5         85.6540   55.0151   36.2439 a2         1 CLA     -0.070400
     49 C6         85.4066   55.7604   37.6009 a2         1 CLA      0.043900
     50 C7         86.6049   56.6190   37.7208 a2         1 CLA     -0.150000
     51 C8         86.7820   57.3392   39.0873 a1         1 CLA      0.064200
     52 C9         87.5548   58.5968   38.8884 a3         1 CLA     -0.259300
     53 C10        87.3070   56.5688   40.3263 a2         1 CLA     -0.071900
     54 C11        87.3701   57.4342   41.5847 a2         1 CLA      0.014500
     55 C12        87.8571   56.5948   42.7964 a2         1 CLA     -0.112100
     56 C13        88.1373   57.4443   44.0824 a1         1 CLA      0.089200
     57 C14        89.2556   58.5245   43.9450 a3         1 CLA     -0.239100
     58 C15        88.2889   56.5275   45.3293 a2         1 CLA     -0.102200
     59 C16        88.3358   57.1363   46.8125 a2         1 CLA      0.023900
     60 C17        87.0549   57.9070   47.2202 a2         1 CLA     -0.105700
     61 C18        86.8652   58.1725   48.7907 a1         1 CLA      0.206800
     62 C19        85.7581   59.2474   49.0147 a3         1 CLA     -0.280100
     63 C20        86.5174   56.9228   49.6326 a3         1 CLA     -0.280100
     64 NC         75.6590   59.2804   41.2799 nx         1 CLA     -0.309200
     65 MG         77.1377   59.1076   39.7379 mg         1 CLA      0.895000
     66 HMD3       72.2825   56.1626   37.3620 dc         1 CLA      0.064300
     67 HMD2       72.8511   54.5971   37.6318 dc         1 CLA      0.064300
     68 HMD1       72.5168   55.5677   39.1631 dc         1 CLA      0.064300
     69 HMC3       73.6531   60.0100   45.1752 dc         1 CLA      0.052100
     70 HMC2       75.2696   59.3256   45.3782 dc         1 CLA      0.052100
     71 HMC1       75.1258   61.0064   45.0471 dc         1 CLA      0.052100
     72 HMB3       81.5955   62.9519   42.1092 dc         1 CLA      0.063600
     73 HMB2       82.6091   61.6708   41.8129 dc         1 CLA      0.063600
     74 HMB1       81.8405   62.3899   40.4674 dc         1 CLA      0.063600
     75 HMA3       81.9276   57.1774   38.2905 dc         1 CLA      0.058300
     76 HMA2       82.9028   57.8047   36.9297 dc         1 CLA      0.058300
     77 HMA1       82.6282   58.8201   38.3982 dc         1 CLA      0.058300
     78 HED3       79.4630   53.0620   35.1119 dc         1 CLA      0.079300
     79 HED2       79.9186   53.2706   36.7861 dc         1 CLA      0.079300
     80 HED1       78.5765   52.2497   36.4643 dc         1 CLA      0.079300
     81 HBC3       73.1443   56.0133   42.8650 dc         1 CLA      0.016300
     82 HBC2       73.5044   56.6843   44.5960 dc         1 CLA      0.016300
     83 HBC1       71.8775   56.2999   44.0320 dc         1 CLA      0.016300
     84 HBB2       80.6399   62.6034   45.7751 da         1 CLA      0.183000
     85 HBB1       81.3728   61.3230   44.4350 da         1 CLA      0.183000
     86 HBA2       80.8004   59.0015   33.1550 dc         1 CLA      0.029400
     87 HBA1       81.7860   58.9700   34.5847 dc         1 CLA      0.029400
     88 HAC2       72.3159   58.6529   44.2667 dc         1 CLA      0.029300
     89 HAC1       71.8221   58.2074   42.6129 dc         1 CLA      0.029300
     90 HAA2       78.7843   58.0501   34.2517 dc         1 CLA      0.028700
     91 HAA1       79.3368   59.5733   34.9197 dc         1 CLA      0.028700
     92 H203       85.4576   56.5931   49.4283 dc         1 CLA      0.065600
     93 H202       87.3514   56.1732   49.4976 dc         1 CLA      0.065600
     94 H201       86.4526   57.2192   50.6549 dc         1 CLA      0.065600
     95 H193       85.9237   60.1722   48.4701 dc         1 CLA      0.065600
     96 H192       84.8175   58.7405   48.7300 dc         1 CLA      0.065600
     97 H191       85.6976   59.6210   50.0787 dc         1 CLA      0.065600
     98 H172       87.1145   58.8833   46.6351 dc         1 CLA      0.027600
     99 H171       86.2112   57.3401   46.7897 dc         1 CLA      0.027600
    100 H162       88.4905   56.3010   47.4540 dc         1 CLA      0.002900
    101 H161       89.1502   57.8565   46.8129 dc         1 CLA      0.002900
    102 H152       87.2763   56.0324   45.3975 dc         1 CLA      0.029100
    103 H151       89.1942   55.8965   45.2185 dc         1 CLA      0.029100
    104 H143       89.0383   59.1481   43.0932 dc         1 CLA      0.063600
    105 H142       89.4264   59.1597   44.8014 dc         1 CLA      0.063600
    106 H141       90.1992   58.0445   43.8171 dc         1 CLA      0.063600
    107 H122       87.1282   55.8357   43.1520 dc         1 CLA      0.032500
    108 H121       88.7707   55.9939   42.5080 dc         1 CLA      0.032500
    109 H112       88.2302   58.1073   41.3968 dc         1 CLA      0.006600
    110 H111       86.4259   57.8919   41.7028 dc         1 CLA      0.006600
    111 H102       86.5353   55.7106   40.4337 dc         1 CLA      0.024100
    112 H101       88.3184   56.1976   40.1252 dc         1 CLA      0.024100
    113 HHD        73.1072   57.0956   40.6306 da         1 CLA      0.174300
    114 HHC        77.0784   61.0832   43.8631 da         1 CLA      0.136800
    115 HHB        81.2934   60.5420   39.0648 da         1 CLA      0.138300
    116 HBD        76.7935   56.9520   34.7520 dc         1 CLA      0.107700
    117 HAB        78.7146   62.7423   44.2839 da         1 CLA      0.155200
    118 H93        87.6462   59.2464   39.7179 dc         1 CLA      0.069500
    119 H92        88.5308   58.4428   38.4685 dc         1 CLA      0.069500
    120 H91        87.0376   58.9651   37.9752 dc         1 CLA      0.069500
    121 H8         85.8048   57.8123   39.2956 dc         1 CLA      0.029300
    122 H72        87.4582   55.9451   37.5170 dc         1 CLA      0.044400
    123 H71        86.3643   57.4015   36.9823 dc         1 CLA      0.044400
    124 H62        84.5264   56.3571   37.5336 dc         1 CLA      0.015600
    125 H61        85.3939   55.0157   38.4377 dc         1 CLA      0.015600
    126 H52        86.5493   54.3475   36.3275 dc         1 CLA      0.033200
    127 H51        85.6786   55.7141   35.4166 dc         1 CLA      0.033200
    128 H43        84.0038   52.2305   35.0940 dc         1 CLA      0.037000
    129 H42        85.7311   52.6876   34.9409 dc         1 CLA      0.037000
    130 H41        85.2777   51.9955   36.4594 dc         1 CLA      0.037000
    131 H3A        81.0162   59.7138   36.7900 dc         1 CLA      0.041100
    132 H2A        80.0390   56.8495   36.2479 dc         1 CLA      0.083100
    133 H2         82.5688   54.6638   36.6069 da         1 CLA      0.180900
    134 H18        87.7115   58.6560   49.2372 dc         1 CLA     -0.003900
    135 H13        87.2579   58.0742   44.3365 dc         1 CLA      0.019700
    136 H12        82.1932   54.5815   34.0980 dc         1 CLA      0.120400
    137 H11        83.7990   55.3770   33.9954 dc         1 CLA      0.120400
    138 C1         69.1086   60.6524   49.6066 Z1         2 LUT      0.509236
    139 C2         68.7332   61.3229   50.9483 Z2         2 LUT     -0.434695
    140 C3         67.3203   61.8048   51.1752 Z3         2 LUT      0.437453
    141 O3         67.3162   62.4952   52.4275 S1         2 LUT     -0.547129
    142 C4         67.0498   62.8191   50.0972 Z4         2 LUT     -0.468603
    143 C5         67.6919   62.5898   48.7660 Z5         2 LUT      0.279246
    144 C6         68.5141   61.5000   48.4491 Z6         2 LUT     -0.305473
    145 C7         69.2119   61.4774   47.1542 Z7         2 LUT      0.069402
    146 C8         70.4676   61.7635   46.8071 Z8         2 LUT     -0.191631
    147 C9         70.8637   61.7053   45.4261 Z9         2 LUT      0.196698
    148 C10        72.0141   62.2699   45.0790 Y1         2 LUT     -0.208611
    149 C11        72.6938   62.3735   43.7677 Y2         2 LUT      0.030784
    150 C12        73.9048   62.9889   43.5704 Y3         2 LUT     -0.220316
    151 C13        74.7404   63.0313   42.3060 Y4         2 LUT      0.215937
    152 C14        75.9944   63.5621   42.5444 Y5         2 LUT     -0.185793
    153 C15        76.9952   63.7077   41.5372 Y6         2 LUT     -0.057835
    154 C16        68.2638   59.2441   49.6117 Y7         2 LUT     -0.405615
    155 C17        70.5942   60.1345   49.8000 Y7         2 LUT     -0.405615
    156 C18        67.3088   63.7800   47.8342 Y9         2 LUT     -0.369639
    157 C19        70.0632   60.8531   44.4904 W1         2 LUT     -0.333362
    158 C20        74.1779   62.6793   40.8991 W2         2 LUT     -0.323439
    159 C21        88.3030   65.7654   35.4030 Z1         2 LUT      0.406104
    160 C22        89.2989   65.3428   34.3006 Z2         2 LUT     -0.404965
    161 C23        89.3248   66.3996   33.1703 Z3         2 LUT      0.391255
    162 O23        89.6989   65.6706   31.9967 S1         2 LUT     -0.528210
    163 C24        88.0178   67.1195   32.8610 W6         2 LUT     -0.258361
    164 C25        86.8631   67.0433   33.6265 Z5         2 LUT      0.133546
    165 C26        86.9002   66.1701   34.8624 W8         2 LUT     -0.147008
    166 C27        85.9033   66.7288   35.8531 Z7         2 LUT      0.023843
    167 C28        84.7859   66.1814   36.2966 Z8         2 LUT     -0.216987
    168 C29        84.1893   66.4093   37.5665 Z9         2 LUT      0.206524
    169 C30        83.0093   65.8658   37.8441 Y1         2 LUT     -0.215556
    170 C31        82.2961   65.8590   39.0661 Y2         2 LUT      0.025142
    171 C32        81.1134   65.1418   39.2735 Y3         2 LUT     -0.212209
    172 C33        80.3086   65.2569   40.5803 Y4         2 LUT      0.240937
    173 C34        79.1188   64.5561   40.5957 Y5         2 LUT     -0.218862
    174 C35        78.2017   64.3617   41.6402 Y6         2 LUT     -0.023547
    175 C36        89.0753   66.8473   36.2962 Y7         2 LUT     -0.393485
    176 C37        88.0709   64.5597   36.3513 Y7         2 LUT     -0.393485
    177 C38        85.5224   67.5283   33.1627 Y9         2 LUT     -0.387526
    178 C39        84.9466   67.2555   38.5638 W1         2 LUT     -0.322618
    179 C40        80.5786   66.2064   41.7614 W2         2 LUT     -0.358472
    180 H403       80.9509   65.7377   42.6597 R7         2 LUT      0.097720
    181 H402       81.2677   66.9556   41.4606 R7         2 LUT      0.097720
    182 H401       79.6876   66.6341   42.0716 R7         2 LUT      0.097720
    183 H393       84.6344   67.1707   39.6340 R4         2 LUT      0.082505
    184 H392       85.9806   66.9604   38.5055 R4         2 LUT      0.082505
    185 H391       84.9708   68.3114   38.2736 R4         2 LUT      0.082505
    186 H383       85.5240   67.7907   32.1031 R1         2 LUT      0.104030
    187 H382       84.7382   66.7595   33.1635 R1         2 LUT      0.104030
    188 H381       85.2301   68.4857   33.6212 R1         2 LUT      0.104030
    189 H373       89.0852   64.3229   36.5515 T4         2 LUT      0.089537
    190 H372       87.6255   64.8353   37.3208 T4         2 LUT      0.089537
    191 H371       87.6144   63.6165   35.9872 T4         2 LUT      0.089537
    192 H363       89.7552   66.4604   36.9617 T4         2 LUT      0.089537
    193 H362       89.5373   67.6885   35.7796 T4         2 LUT      0.089537
    194 H361       88.3246   67.2832   36.9563 T4         2 LUT      0.089537
    195 H222       90.3151   65.0991   34.6103 U2         2 LUT      0.127376
    196 H221       88.7463   64.5389   33.8679 U2         2 LUT      0.127376
    197 H203       74.7130   63.1562   40.0815 R7         2 LUT      0.087068
    198 H202       74.2968   61.5580   40.7788 R7         2 LUT      0.087068
    199 H201       73.1599   63.0681   40.6548 R7         2 LUT      0.087068
    200 H193       70.6802   60.4740   43.6481 R4         2 LUT      0.089716
    201 H192       69.8178   59.9411   45.1455 R4         2 LUT      0.089716
    202 H191       69.1693   61.3229   44.1304 R4         2 LUT      0.089716
    203 H183       68.1757   64.4572   47.7672 R1         2 LUT      0.094572
    204 H182       67.2534   63.4389   46.8193 R1         2 LUT      0.094572
    205 H181       66.3633   64.3541   48.1161 R1         2 LUT      0.094572
    206 H173       71.3820   60.9136   49.6243 T4         2 LUT      0.093752
    207 H172       70.7581   59.4795   50.7159 T4         2 LUT      0.093752
    208 H171       70.7241   59.4871   48.8953 T4         2 LUT      0.093752
    209 H163       68.5596   58.6076   50.4511 T4         2 LUT      0.093752
    210 H162       67.1855   59.3319   49.6486 T4         2 LUT      0.093752
    211 H161       68.5383   58.6713   48.6976 T4         2 LUT      0.093752
    212 HO3        66.9778   61.9105   53.1389 Q1         2 LUT      0.300121
    213 H8         71.1635   62.0875   47.6489 U7         2 LUT      0.080784
    214 H7         68.5218   61.2076   46.4265 U6         2 LUT      0.042190
    215 H42        65.9606   62.7309   49.8430 U5         2 LUT      0.145166
    216 H41        67.3141   63.8157   50.4739 U5         2 LUT      0.145166
    217 H35        78.3522   64.8729   42.5678 T3         2 LUT      0.077919
    218 H34        78.8859   63.9233   39.7443 T2         2 LUT      0.073626
    219 H32        80.7276   64.4522   38.6448 T1         2 LUT      0.092510
    220 H31        82.5942   66.5816   39.8785 U9         2 LUT      0.070048
    221 H30        82.4946   65.2979   37.0701 U8         2 LUT      0.085442
    222 H3         66.5945   60.9444   51.0260 U3         2 LUT     -0.031596
    223 H28        84.4354   65.2276   35.9437 U7         2 LUT      0.084728
    224 H27        86.2625   67.5518   36.4387 U6         2 LUT      0.087291
    225 H26        86.4728   65.2765   34.4274 Q6         2 LUT      0.075325
    226 H24        87.9612   67.5981   31.9612 Q5         2 LUT      0.094482
    227 H23        90.0372   67.0805   33.6241 U3         2 LUT     -0.024869
    228 H22        69.0312   60.6304   51.7699 U2         2 LUT      0.127376
    229 H21        69.2970   62.2561   51.0761 U2         2 LUT      0.127376
    230 H15        76.8368   63.2231   40.5894 T3         2 LUT      0.093200
    231 H14        76.2650   63.8336   43.5900 T2         2 LUT      0.068865
    232 H12        74.3403   63.4102   44.4835 T1         2 LUT      0.095507
    233 H11        72.1564   61.8555   42.8841 U9         2 LUT      0.068930
    234 H10        72.5036   62.8882   45.9066 U8         2 LUT      0.083911
    235 H1         90.2292   66.2070   31.4472 Q1         2 LUT      0.297311
@<TRIPOS>BOND
    1     6     1 1
    2     7     2 1
    3     8     3 1
    4     9     4 1
    5    11     4 1
    6    12     6 1
    7    13     9 1
    8    16     9 1
    9    25     5 1
   10    25    16 1
   11    26    10 1
   12    26    17 1
   13    27    18 1
   14    28    14 1
   15    28    19 1
   16    29    12 1
   17    30    13 1
   18    31    24 1
   19    32     1 1
   20    32    25 1
   21    33    21 1
   22    33    26 1
   23    34    22 1
   24    34    27 1
   25    35    23 1
   26    35    28 1
   27    36    12 1
   28    36    24 1
   29    37    13 1
   30    37    15 1
   31    38    31 1
   32    39    20 1
   33    39    32 1
   34    40     2 1
   35    40    33 1
   36    41     3 1
   37    41    34 1
   38    42     4 1
   39    42    35 1
   40    43    38 1
   41    44     5 1
   42    44    17 1
   43    44    39 1
   44    45    10 1
   45    45    18 1
   46    45    40 1
   47    46    19 1
   48    46    41 1
   49    47    14 1
   50    47    16 1
   51    47    42 1
   52    48    38 1
   53    49    48 1
   54    50    49 1
   55    51    50 1
   56    52    51 1
   57    53    51 1
   58    54    53 1
   59    55    54 1
   60    56    55 1
   61    57    56 1
   62    58    56 1
   63    59    58 1
   64    60    59 1
   65    61    60 1
   66    62    61 1
   67    63    61 1
   68    64    27 1
   69    64    46 1
   70    65     5 1
   71    65    10 1
   72    65    64 1
   73    65    14 1
   74    66    23 1
   75    67    23 1
   76    68    23 1
   77    69    22 1
   78    70    22 1
   79    71    22 1
   80    72    21 1
   81    73    21 1
   82    74    21 1
   83    75    20 1
   84    76    20 1
   85    77    20 1
   86    78    15 1
   87    79    15 1
   88    80    15 1
   89    81     8 1
   90    82     8 1
   91    83     8 1
   92    84     7 1
   93    85     7 1
   94    86     6 1
   95    87     6 1
   96    88     3 1
   97    89     3 1
   98    90     1 1
   99    91     1 1
  100    92    63 1
  101    93    63 1
  102    94    63 1
  103    95    62 1
  104    96    62 1
  105    97    62 1
  106    98    60 1
  107    99    60 1
  108   100    59 1
  109   101    59 1
  110   102    58 1
  111   103    58 1
  112   104    57 1
  113   105    57 1
  114   106    57 1
  115   107    55 1
  116   108    55 1
  117   109    54 1
  118   110    54 1
  119   111    53 1
  120   112    53 1
  121   113    19 1
  122   114    18 1
  123   115    17 1
  124   116     9 1
  125   117     2 1
  126   118    52 1
  127   119    52 1
  128   120    52 1
  129   121    51 1
  130   122    50 1
  131   123    50 1
  132   124    49 1
  133   125    49 1
  134   126    48 1
  135   127    48 1
  136   128    43 1
  137   129    43 1
  138   130    43 1
  139   131    39 1
  140   132    32 1
  141   133    31 1
  142   134    61 1
  143   135    56 1
  144   136    24 1
  145   137    24 1
  146   139   138 1
  147   140   139 1
  148   141   140 1
  149   142   140 1
  150   143   142 1
  151   144   138 1
  152   144   143 1
  153   145   144 1
  154   146   145 1
  155   147   146 1
  156   148   147 1
  157   149   148 1
  158   150   149 1
  159   151   150 1
  160   152   151 1
  161   153   152 1
  162   154   138 1
  163   155   138 1
  164   156   143 1
  165   157   147 1
  166   158   151 1
  167   160   159 1
  168   161   160 1
  169   162   161 1
  170   163   161 1
  171   164   163 1
  172   165   159 1
  173   165   164 1
  174   166   165 1
  175   167   166 1
  176   168   167 1
  177   169   168 1
  178   170   169 1
  179   171   170 1
  180   172   171 1
  181   173   172 1
  182   174   153 1
  183   174   173 1
  184   175   159 1
  185   176   159 1
  186   177   164 1
  187   178   168 1
  188   179   172 1
  189   180   179 1
  190   181   179 1
  191   182   179 1
  192   183   178 1
  193   184   178 1
  194   185   178 1
  195   186   177 1
  196   187   177 1
  197   188   177 1
  198   189   176 1
  199   190   176 1
  200   191   176 1
  201   192   175 1
  202   193   175 1
  203   194   175 1
  204   195   160 1
  205   196   160 1
  206   197   158 1
  207   198   158 1
  208   199   158 1
  209   200   157 1
  210   201   157 1
  211   202   157 1
  212   203   156 1
  213   204   156 1
  214   205   156 1
  215   206   155 1
  216   207   155 1
  217   208   155 1
  218   209   154 1
  219   210   154 1
  220   211   154 1
  221   212   141 1
  222   213   146 1
  223   214   145 1
  224   215   142 1
  225   216   142 1
  226   217   174 1
  227   218   173 1
  228   219   171 1
  229   220   170 1
  230   221   169 1
  231   222   140 1
  232   223   167 1
  233   224   166 1
  234   225   165 1
  235   226   163 1
  236   227   161 1
  237   228   139 1
  238   229   139 1
  239   230   153 1
  240   231   152 1
  241   232   150 1
  242   233   149 1
  243   234   148 1
  244   235   162 1
  245   65    153 1
  246   65    174 1
@<TRIPOS>SUBSTRUCTURE
      1 CLA               1 ****               0 ****  **** 
      2 LUT             138 ****               0 ****  **** 
