@<TRIPOS>MOLECULE
Cpptraj generated mol2 file.
  235   246     2     0     0
SMALL
USER_CHARGES


@<TRIPOS>ATOM
      1 CAA        77.1996   58.3360   34.9125 a2         1 CLA     -0.055900
      2 CAB        76.7363   62.0838   43.6506 c8         1 CLA     -0.148500
      3 CAC        70.1075   57.4943   43.0431 a2         1 CLA     -0.012600
      4 CAD        73.2549   55.5003   35.8562 ck         1 CLA      0.398800
      5 NA         76.2374   58.4392   38.2903 ns         1 CLA     -0.225500
      6 CBA        78.3922   58.4150   33.8815 a2         1 CLA     -0.135000
      7 CBB        77.3309   61.5639   44.7462 c0         1 CLA     -0.395200
      8 CBC        70.2239   56.0255   43.0987 a3         1 CLA     -0.037700
      9 CBD        74.7800   55.9963   35.7068 a1         1 CLA     -0.053900
     10 NB         75.9166   60.0483   40.7020 nm         1 CLA     -0.295700
     11 OBD        72.7338   54.8766   34.9966 o2         1 CLA     -0.494600
     12 CGA        79.0922   57.1290   33.5409 c4         1 CLA      0.827000
     13 CGD        75.6682   54.8423   35.8253 c4         1 CLA      0.655300
     14 ND         73.3431   57.6137   38.6540 nm         1 CLA     -0.291600
     15 CED        76.4811   52.9428   36.9120 a3         1 CLA      0.005400
     16 CHA        74.9953   56.9208   36.9208 cs         1 CLA     -0.123800
     17 CHB        77.8816   59.9716   39.2476 aa         1 CLA     -0.291900
     18 CHC        74.5331   60.1661   42.7252 aa         1 CLA     -0.090400
     19 CHD        71.4708   57.2860   40.1818 aa         1 CLA     -0.052000
     20 CMA        79.6605   57.7366   37.8086 a3         1 CLA     -0.230700
     21 CMB        79.2043   61.9200   41.5491 a3         1 CLA     -0.180800
     22 CMC        72.0411   59.4070   44.7300 a3         1 CLA     -0.134000
     23 CMD        70.3895   55.4336   37.9876 a3         1 CLA     -0.141100
     24 C1         80.9051   55.5821   33.9579 a2         1 CLA      0.023000
     25 C1A        76.1736   57.6404   37.1759 ac         1 CLA     -0.015100
     26 C1B        77.2101   60.4171   40.3455 cr         1 CLA      0.054700
     27 C1C        73.3635   59.3273   42.4727 cn         1 CLA     -0.005600
     28 C1D        72.1700   57.0391   38.9623 ap         1 CLA     -0.047300
     29 O1A        78.6541   56.3893   32.6518 o2         1 CLA     -0.610800
     30 O1D        76.4766   54.5576   34.9908 o2         1 CLA     -0.558200
     31 C2         81.2773   54.8779   35.2568 c8         1 CLA     -0.325100
     32 C2A        77.4398   57.6309   36.3262 a1         1 CLA      0.098600
     33 C2B        77.7781   61.2717   41.4452 cb         1 CLA      0.088500
     34 C2C        72.2097   59.0239   43.2871 cb         1 CLA      0.053700
     35 C2D        71.6829   56.1515   37.9586 cb         1 CLA      0.058900
     36 O2A        80.1388   56.8267   34.3256 o1         1 CLA     -0.437200
     37 O2D        75.6221   54.1486   37.0018 o1         1 CLA     -0.357600
     38 C3         81.7876   53.6528   35.4765 c5         1 CLA      0.031200
     39 C3A        78.4162   58.4757   37.2874 a1         1 CLA      0.166800
     40 C3B        76.7532   61.3259   42.3763 cb         1 CLA      0.035000
     41 C3C        71.3432   58.1709   42.5478 cb         1 CLA     -0.089900
     42 C3D        72.7546   56.0306   37.0764 cb         1 CLA     -0.035900
     43 C4         81.0328   52.3536   35.5882 a3         1 CLA     -0.053300
     44 C4A        77.4693   59.0265   38.3817 ac         1 CLA      0.001800
     45 C4B        75.6327   60.4982   41.9373 cn         1 CLA     -0.020900
     46 C4C        71.9727   58.0767   41.2359 cr         1 CLA     -0.044400
     47 C4D        73.7516   56.9176   37.6030 c6         1 CLA     -0.046000
     48 C5         83.2234   53.5248   35.7640 a2         1 CLA     -0.070400
     49 C6         84.0257   54.7767   36.1588 a2         1 CLA      0.043900
     50 C7         84.1140   55.1135   37.6636 a2         1 CLA     -0.150000
     51 C8         84.9615   56.3355   38.0916 a1         1 CLA      0.064200
     52 C9         86.3763   56.1492   37.5364 a3         1 CLA     -0.259300
     53 C10        84.9220   56.6639   39.6255 a2         1 CLA     -0.071900
     54 C11        83.6192   57.3548   40.1041 a2         1 CLA      0.014500
     55 C12        83.7326   57.9594   41.4757 a2         1 CLA     -0.112100
     56 C13        84.1837   57.2186   42.7495 a1         1 CLA      0.089200
     57 C14        83.2083   56.0051   42.9933 a3         1 CLA     -0.239100
     58 C15        84.3244   58.1984   43.9283 a2         1 CLA     -0.102200
     59 C16        82.9993   58.9974   44.3240 a2         1 CLA      0.023900
     60 C17        83.3153   60.1458   45.2769 a2         1 CLA     -0.105700
     61 C18        82.0952   60.7507   46.0305 a1         1 CLA      0.206800
     62 C19        82.5694   61.7021   47.0648 a3         1 CLA     -0.280100
     63 C20        81.0644   61.4555   45.0027 a3         1 CLA     -0.280100
     64 NC         73.1645   58.8083   41.2225 nx         1 CLA     -0.309200
     65 MG         74.6274   58.8308   39.6048 mg         1 CLA      0.895000
     66 HMD3       69.5859   56.1029   38.3540 dc         1 CLA      0.064300
     67 HMD2       70.1061   55.0174   37.0413 dc         1 CLA      0.064300
     68 HMD1       70.3850   54.6438   38.7499 dc         1 CLA      0.064300
     69 HMC3       72.7953   59.9775   45.1439 dc         1 CLA      0.052100
     70 HMC2       71.0825   59.7874   44.9755 dc         1 CLA      0.052100
     71 HMC1       72.1778   58.4863   45.2995 dc         1 CLA      0.052100
     72 HMB3       79.4617   62.7198   40.8850 dc         1 CLA      0.063600
     73 HMB2       79.4160   62.3824   42.5518 dc         1 CLA      0.063600
     74 HMB1       79.9475   61.1691   41.5013 dc         1 CLA      0.063600
     75 HMA3       80.3073   57.6275   36.9250 dc         1 CLA      0.058300
     76 HMA2       80.0640   58.1833   38.6702 dc         1 CLA      0.058300
     77 HMA1       79.2717   56.7056   37.9250 dc         1 CLA      0.058300
     78 HED3       76.2864   52.2065   36.1405 dc         1 CLA      0.079300
     79 HED2       77.5592   53.1750   36.9838 dc         1 CLA      0.079300
     80 HED1       76.2905   52.3734   37.8171 dc         1 CLA      0.079300
     81 HBC3       69.2826   55.7181   43.6827 dc         1 CLA      0.016300
     82 HBC2       70.3731   55.5761   42.1445 dc         1 CLA      0.016300
     83 HBC1       70.9973   55.7797   43.7842 dc         1 CLA      0.016300
     84 HBB2       77.3324   62.0369   45.7408 da         1 CLA      0.183000
     85 HBB1       77.9101   60.6773   44.6623 da         1 CLA      0.183000
     86 HBA2       78.1249   58.8099   32.9518 dc         1 CLA      0.029400
     87 HBA1       79.1503   59.1033   34.2815 dc         1 CLA      0.029400
     88 HAC2       69.8242   57.9012   44.0618 dc         1 CLA      0.029300
     89 HAC1       69.3276   57.8139   42.3846 dc         1 CLA      0.029300
     90 HAA2       76.4533   57.7390   34.4006 dc         1 CLA      0.028700
     91 HAA1       76.7571   59.3014   35.1936 dc         1 CLA      0.028700
     92 H203       80.3061   61.9703   45.6023 dc         1 CLA      0.065600
     93 H202       81.5184   62.3198   44.4422 dc         1 CLA      0.065600
     94 H201       80.5688   60.8111   44.2895 dc         1 CLA      0.065600
     95 H193       81.7688   61.9124   47.7941 dc         1 CLA      0.065600
     96 H192       83.3664   61.1516   47.6160 dc         1 CLA      0.065600
     97 H191       82.9357   62.6278   46.6450 dc         1 CLA      0.065600
     98 H172       83.9409   59.5836   46.0230 dc         1 CLA      0.027600
     99 H171       83.8282   61.0054   44.7489 dc         1 CLA      0.027600
    100 H162       82.7159   59.5493   43.4149 dc         1 CLA      0.002900
    101 H161       82.2657   58.3613   44.8744 dc         1 CLA      0.002900
    102 H152       84.6330   57.5201   44.7113 dc         1 CLA      0.029100
    103 H151       85.2044   58.7857   43.7206 dc         1 CLA      0.029100
    104 H143       82.1570   56.3334   43.2345 dc         1 CLA      0.063600
    105 H142       83.1674   55.5173   42.0692 dc         1 CLA      0.063600
    106 H141       83.5753   55.3667   43.7696 dc         1 CLA      0.063600
    107 H122       84.4264   58.8282   41.3728 dc         1 CLA      0.032500
    108 H121       82.7895   58.4371   41.6039 dc         1 CLA      0.032500
    109 H112       83.2229   58.2056   39.4996 dc         1 CLA      0.006600
    110 H111       82.7808   56.6376   40.0084 dc         1 CLA      0.006600
    111 H102       85.0922   55.7656   40.2153 dc         1 CLA      0.024100
    112 H101       85.6567   57.3361   39.9198 dc         1 CLA      0.024100
    113 HHD        70.5290   56.7878   40.3670 da         1 CLA      0.174300
    114 HHC        74.3891   60.7107   43.6505 da         1 CLA      0.136800
    115 HHB        78.9242   60.3735   39.2317 da         1 CLA      0.138300
    116 HBD        74.9196   56.4167   34.7069 dc         1 CLA      0.107700
    117 HAB        76.1298   63.0377   43.7085 da         1 CLA      0.155200
    118 H93        86.4854   55.9523   36.4602 dc         1 CLA      0.069500
    119 H92        86.9733   57.1215   37.6140 dc         1 CLA      0.069500
    120 H91        86.9485   55.4049   38.0685 dc         1 CLA      0.069500
    121 H8         84.6277   57.2279   37.5830 dc         1 CLA      0.029300
    122 H72        83.1194   55.3892   38.0141 dc         1 CLA      0.044400
    123 H71        84.4805   54.2955   38.3435 dc         1 CLA      0.044400
    124 H62        85.0090   54.6706   35.7387 dc         1 CLA      0.015600
    125 H61        83.7316   55.6487   35.6774 dc         1 CLA      0.015600
    126 H52        83.3773   52.8159   36.5725 dc         1 CLA      0.033200
    127 H51        83.7131   53.1863   34.9131 dc         1 CLA      0.033200
    128 H43        81.0542   51.8644   36.5786 dc         1 CLA      0.037000
    129 H42        80.0116   52.6576   35.3732 dc         1 CLA      0.037000
    130 H41        81.3025   51.6165   34.8191 dc         1 CLA      0.037000
    131 H3A        78.7609   59.3420   36.8067 dc         1 CLA      0.041100
    132 H2A        77.7776   56.6216   36.1488 dc         1 CLA      0.083100
    133 H2         80.9771   55.4090   36.1600 da         1 CLA      0.180900
    134 H18        81.6230   59.9791   46.6195 dc         1 CLA     -0.003900
    135 H13        85.1312   56.7655   42.5557 dc         1 CLA      0.019700
    136 H12        80.3621   54.8195   33.3659 dc         1 CLA      0.120400
    137 H11        81.7716   55.7321   33.3002 dc         1 CLA      0.120400
    138 C1         67.6631   61.0437   50.4774 Z1         2 LUT      0.509236
    139 C2         66.2944   61.0530   51.2154 Z2         2 LUT     -0.434695
    140 C3         65.6358   62.4346   51.5330 Z3         2 LUT      0.437453
    141 O3         66.1155   63.0071   52.7876 S1         2 LUT     -0.547129
    142 C4         65.8652   63.4747   50.4029 Z4         2 LUT     -0.468603
    143 C5         66.6191   63.0547   49.1836 Z5         2 LUT      0.279246
    144 C6         67.4617   62.0172   49.2529 Z6         2 LUT     -0.305473
    145 C7         67.8719   61.3422   47.9830 Z7         2 LUT      0.069402
    146 C8         68.6128   62.0272   47.0718 Z8         2 LUT     -0.191631
    147 C9         69.0662   61.6224   45.7278 Z9         2 LUT      0.196698
    148 C10        70.0629   62.3240   45.0830 Y1         2 LUT     -0.208611
    149 C11        70.5976   62.1390   43.7837 Y2         2 LUT      0.030784
    150 C12        71.6099   62.9084   43.2488 Y3         2 LUT     -0.220316
    151 C13        72.4287   62.6525   42.1003 Y4         2 LUT      0.215937
    152 C14        73.5965   63.3450   42.0345 Y5         2 LUT     -0.185793
    153 C15        74.6590   63.6096   41.0056 Y6         2 LUT     -0.057835
    154 C16        67.9598   59.5381   50.2166 Y7         2 LUT     -0.405615
    155 C17        68.5996   61.6167   51.5635 Y7         2 LUT     -0.405615
    156 C18        66.1631   63.7989   47.8973 Y9         2 LUT     -0.369639
    157 C19        68.3720   60.5074   45.0310 W1         2 LUT     -0.333362
    158 C20        71.8073   62.0173   40.9163 W2         2 LUT     -0.323439
    159 C21        85.6861   64.9330   34.7373 Z1         2 LUT      0.406104
    160 C22        86.5112   64.3604   33.6002 Z2         2 LUT     -0.404965
    161 C23        86.7056   65.3552   32.4918 Z3         2 LUT      0.391255
    162 O23        87.4689   64.8361   31.3811 S1         2 LUT     -0.528210
    163 C24        85.3643   65.9673   32.1174 W6         2 LUT     -0.258361
    164 C25        84.3031   66.0002   32.9066 Z5         2 LUT      0.133546
    165 C26        84.2657   65.4468   34.3292 W8         2 LUT     -0.147008
    166 C27        83.5691   66.1886   35.4387 Z7         2 LUT      0.023843
    167 C28        82.4557   65.6870   36.0509 Z8         2 LUT     -0.216987
    168 C29        81.8301   66.3405   37.1837 Z9         2 LUT      0.206524
    169 C30        80.7281   65.7204   37.7319 Y1         2 LUT     -0.215556
    170 C31        80.0412   65.8811   38.9824 Y2         2 LUT      0.025142
    171 C32        78.9032   65.3011   39.2385 Y3         2 LUT     -0.212209
    172 C33        78.0659   65.3830   40.4666 Y4         2 LUT      0.240937
    173 C34        76.9061   64.6059   40.4229 Y5         2 LUT     -0.218862
    174 C35        75.7837   64.3630   41.3128 Y6         2 LUT     -0.023547
    175 C36        86.6033   65.9489   35.4617 Y7         2 LUT     -0.393485
    176 C37        85.4625   63.7978   35.8283 Y7         2 LUT     -0.393485
    177 C38        83.0170   66.5493   32.5276 Y9         2 LUT     -0.387526
    178 C39        82.4882   67.5024   37.8883 W1         2 LUT     -0.322618
    179 C40        78.6066   66.1473   41.6261 W2         2 LUT     -0.358472
    180 H403       79.6935   66.0691   41.6292 R7         2 LUT      0.097720
    181 H402       78.3830   67.2200   41.5546 R7         2 LUT      0.097720
    182 H401       78.2270   65.7378   42.5744 R7         2 LUT      0.097720
    183 H393       83.5145   67.3020   38.0855 R4         2 LUT      0.082505
    184 H392       82.4761   68.1850   37.1470 R4         2 LUT      0.082505
    185 H391       81.9583   67.9399   38.7889 R4         2 LUT      0.082505
    186 H383       83.0027   66.8585   31.4569 R1         2 LUT      0.104030
    187 H382       82.1275   65.9625   32.7480 R1         2 LUT      0.104030
    188 H381       82.8125   67.5533   33.0603 R1         2 LUT      0.104030
    189 H373       84.7944   64.1453   36.6342 T4         2 LUT      0.089537
    190 H372       85.1188   62.8537   35.3555 T4         2 LUT      0.089537
    191 H371       86.3768   63.4771   36.3468 T4         2 LUT      0.089537
    192 H363       87.6290   65.5324   35.5113 T4         2 LUT      0.089537
    193 H362       86.7786   66.9191   34.9391 T4         2 LUT      0.089537
    194 H361       86.1865   66.2592   36.3922 T4         2 LUT      0.089537
    195 H222       87.4917   64.0386   33.9558 U2         2 LUT      0.127376
    196 H221       86.1212   63.5647   33.0176 U2         2 LUT      0.127376
    197 H203       72.5840   61.9304   40.1669 R7         2 LUT      0.087068
    198 H202       71.4447   61.0264   41.2591 R7         2 LUT      0.087068
    199 H201       70.9899   62.6309   40.4232 R7         2 LUT      0.087068
    200 H193       68.9714   59.6513   44.8662 R4         2 LUT      0.089716
    201 H192       67.3461   60.2034   45.3034 R4         2 LUT      0.089716
    202 H191       68.1402   60.8973   44.0375 R4         2 LUT      0.089716
    203 H183       66.8369   64.6585   47.7993 R1         2 LUT      0.094572
    204 H182       66.2668   63.2813   46.9668 R1         2 LUT      0.094572
    205 H181       65.1285   64.1227   48.0492 R1         2 LUT      0.094572
    206 H173       68.5530   62.7174   51.7783 T4         2 LUT      0.093752
    207 H172       68.6774   61.1255   52.5447 T4         2 LUT      0.093752
    208 H171       69.6119   61.4765   51.2670 T4         2 LUT      0.093752
    209 H163       68.2075   59.0486   51.0961 T4         2 LUT      0.093752
    210 H162       67.0913   59.0438   49.7003 T4         2 LUT      0.093752
    211 H161       68.7220   59.3554   49.5232 T4         2 LUT      0.093752
    212 HO3        65.8914   62.4196   53.5412 Q1         2 LUT      0.300121
    213 H8         68.9370   63.0174   47.3337 U7         2 LUT      0.080784
    214 H7         67.6272   60.2607   47.8068 U6         2 LUT      0.042190
    215 H42        64.7976   63.8267   50.2050 U5         2 LUT      0.145166
    216 H41        66.5910   64.1396   50.7383 U5         2 LUT      0.145166
    217 H35        75.9147   64.8155   42.3032 T3         2 LUT      0.077919
    218 H34        76.7223   63.9419   39.5828 T2         2 LUT      0.073626
    219 H32        78.3904   64.6559   38.5480 T1         2 LUT      0.092510
    220 H31        80.4717   66.5950   39.6839 U9         2 LUT      0.070048
    221 H30        80.3215   64.8466   37.1700 U8         2 LUT      0.085442
    222 H3         64.5468   62.3245   51.7233 U3         2 LUT     -0.031596
    223 H28        82.0149   64.7356   35.7558 U7         2 LUT      0.084728
    224 H27        84.0702   67.1486   35.6396 U6         2 LUT      0.087291
    225 H26        83.7465   64.4645   34.1416 Q6         2 LUT      0.075325
    226 H24        85.3356   66.3943   31.1553 Q5         2 LUT      0.094482
    227 H23        87.2714   66.1478   32.9649 U3         2 LUT     -0.024869
    228 H22        65.6136   60.5490   50.5291 U2         2 LUT      0.127376
    229 H21        66.2761   60.3577   52.0265 U2         2 LUT      0.127376
    230 H15        74.5313   63.2303   39.9751 T3         2 LUT      0.093200
    231 H14        73.8196   63.9827   42.9279 T2         2 LUT      0.068865
    232 H12        71.9757   63.7210   43.8957 T1         2 LUT      0.095507
    233 H11        70.2447   61.2320   43.2677 U9         2 LUT      0.068930
    234 H10        70.5914   63.1643   45.5963 U8         2 LUT      0.083911
    235 H1         86.8726   64.3862   30.7144 Q1         2 LUT      0.297311
@<TRIPOS>BOND
    1     6     1 1
    2     7     2 1
    3     8     3 1
    4     9     4 1
    5    11     4 1
    6    12     6 1
    7    13     9 1
    8    16     9 1
    9    25     5 1
   10    25    16 1
   11    26    10 1
   12    26    17 1
   13    27    18 1
   14    28    14 1
   15    28    19 1
   16    29    12 1
   17    30    13 1
   18    31    24 1
   19    32     1 1
   20    32    25 1
   21    33    21 1
   22    33    26 1
   23    34    22 1
   24    34    27 1
   25    35    23 1
   26    35    28 1
   27    36    12 1
   28    36    24 1
   29    37    13 1
   30    37    15 1
   31    38    31 1
   32    39    20 1
   33    39    32 1
   34    40     2 1
   35    40    33 1
   36    41     3 1
   37    41    34 1
   38    42     4 1
   39    42    35 1
   40    43    38 1
   41    44     5 1
   42    44    17 1
   43    44    39 1
   44    45    10 1
   45    45    18 1
   46    45    40 1
   47    46    19 1
   48    46    41 1
   49    47    14 1
   50    47    16 1
   51    47    42 1
   52    48    38 1
   53    49    48 1
   54    50    49 1
   55    51    50 1
   56    52    51 1
   57    53    51 1
   58    54    53 1
   59    55    54 1
   60    56    55 1
   61    57    56 1
   62    58    56 1
   63    59    58 1
   64    60    59 1
   65    61    60 1
   66    62    61 1
   67    63    61 1
   68    64    27 1
   69    64    46 1
   70    65     5 1
   71    65    10 1
   72    65    64 1
   73    65    14 1
   74    66    23 1
   75    67    23 1
   76    68    23 1
   77    69    22 1
   78    70    22 1
   79    71    22 1
   80    72    21 1
   81    73    21 1
   82    74    21 1
   83    75    20 1
   84    76    20 1
   85    77    20 1
   86    78    15 1
   87    79    15 1
   88    80    15 1
   89    81     8 1
   90    82     8 1
   91    83     8 1
   92    84     7 1
   93    85     7 1
   94    86     6 1
   95    87     6 1
   96    88     3 1
   97    89     3 1
   98    90     1 1
   99    91     1 1
  100    92    63 1
  101    93    63 1
  102    94    63 1
  103    95    62 1
  104    96    62 1
  105    97    62 1
  106    98    60 1
  107    99    60 1
  108   100    59 1
  109   101    59 1
  110   102    58 1
  111   103    58 1
  112   104    57 1
  113   105    57 1
  114   106    57 1
  115   107    55 1
  116   108    55 1
  117   109    54 1
  118   110    54 1
  119   111    53 1
  120   112    53 1
  121   113    19 1
  122   114    18 1
  123   115    17 1
  124   116     9 1
  125   117     2 1
  126   118    52 1
  127   119    52 1
  128   120    52 1
  129   121    51 1
  130   122    50 1
  131   123    50 1
  132   124    49 1
  133   125    49 1
  134   126    48 1
  135   127    48 1
  136   128    43 1
  137   129    43 1
  138   130    43 1
  139   131    39 1
  140   132    32 1
  141   133    31 1
  142   134    61 1
  143   135    56 1
  144   136    24 1
  145   137    24 1
  146   139   138 1
  147   140   139 1
  148   141   140 1
  149   142   140 1
  150   143   142 1
  151   144   138 1
  152   144   143 1
  153   145   144 1
  154   146   145 1
  155   147   146 1
  156   148   147 1
  157   149   148 1
  158   150   149 1
  159   151   150 1
  160   152   151 1
  161   153   152 1
  162   154   138 1
  163   155   138 1
  164   156   143 1
  165   157   147 1
  166   158   151 1
  167   160   159 1
  168   161   160 1
  169   162   161 1
  170   163   161 1
  171   164   163 1
  172   165   159 1
  173   165   164 1
  174   166   165 1
  175   167   166 1
  176   168   167 1
  177   169   168 1
  178   170   169 1
  179   171   170 1
  180   172   171 1
  181   173   172 1
  182   174   153 1
  183   174   173 1
  184   175   159 1
  185   176   159 1
  186   177   164 1
  187   178   168 1
  188   179   172 1
  189   180   179 1
  190   181   179 1
  191   182   179 1
  192   183   178 1
  193   184   178 1
  194   185   178 1
  195   186   177 1
  196   187   177 1
  197   188   177 1
  198   189   176 1
  199   190   176 1
  200   191   176 1
  201   192   175 1
  202   193   175 1
  203   194   175 1
  204   195   160 1
  205   196   160 1
  206   197   158 1
  207   198   158 1
  208   199   158 1
  209   200   157 1
  210   201   157 1
  211   202   157 1
  212   203   156 1
  213   204   156 1
  214   205   156 1
  215   206   155 1
  216   207   155 1
  217   208   155 1
  218   209   154 1
  219   210   154 1
  220   211   154 1
  221   212   141 1
  222   213   146 1
  223   214   145 1
  224   215   142 1
  225   216   142 1
  226   217   174 1
  227   218   173 1
  228   219   171 1
  229   220   170 1
  230   221   169 1
  231   222   140 1
  232   223   167 1
  233   224   166 1
  234   225   165 1
  235   226   163 1
  236   227   161 1
  237   228   139 1
  238   229   139 1
  239   230   153 1
  240   231   152 1
  241   232   150 1
  242   233   149 1
  243   234   148 1
  244   235   162 1
  245   65    153 1
  246   65    174 1
@<TRIPOS>SUBSTRUCTURE
      1 CLA               1 ****               0 ****  **** 
      2 LUT             138 ****               0 ****  **** 
