@<TRIPOS>MOLECULE
Cpptraj generated mol2 file.
  235   246     2     0     0
SMALL
USER_CHARGES


@<TRIPOS>ATOM
      1 CAA        78.8394   58.1559   35.8845 a2         1 CLA     -0.055900
      2 CAB        77.9263   62.1856   44.6813 c8         1 CLA     -0.148500
      3 CAC        71.6556   57.5753   44.2128 a2         1 CLA     -0.012600
      4 CAD        74.6854   55.5268   36.8958 ck         1 CLA      0.398800
      5 NA         77.6000   58.6556   39.1609 ns         1 CLA     -0.225500
      6 CBA        80.2345   58.0614   35.1851 a2         1 CLA     -0.135000
      7 CBB        78.8264   62.0624   45.6784 c0         1 CLA     -0.395200
      8 CBC        71.9712   56.1046   44.3846 a3         1 CLA     -0.037700
      9 CBD        76.2331   55.8727   36.7638 a1         1 CLA     -0.053900
     10 NB         77.1885   60.3655   41.6611 nm         1 CLA     -0.295700
     11 OBD        74.0959   54.8357   36.0809 o2         1 CLA     -0.494600
     12 CGA        80.7698   56.6429   35.1565 c4         1 CLA      0.827000
     13 CGD        77.2188   54.8068   37.0095 c4         1 CLA      0.655300
     14 ND         74.7606   57.5786   39.6746 nm         1 CLA     -0.291600
     15 CED        77.9016   52.9151   38.2411 a3         1 CLA      0.005400
     16 CHA        76.3951   57.0196   37.8129 cs         1 CLA     -0.123800
     17 CHB        79.1795   60.1854   40.2190 aa         1 CLA     -0.291900
     18 CHC        75.7045   60.4862   43.5822 aa         1 CLA     -0.090400
     19 CHD        72.7509   57.3922   41.1252 aa         1 CLA     -0.052000
     20 CMA        81.1871   58.3386   38.5786 a3         1 CLA     -0.230700
     21 CMB        80.3784   62.0283   42.5492 a3         1 CLA     -0.180800
     22 CMC        73.4874   59.9462   45.6254 a3         1 CLA     -0.134000
     23 CMD        71.6771   55.5322   38.7370 a3         1 CLA     -0.141100
     24 C1         82.1441   55.0994   36.3204 a2         1 CLA      0.023000
     25 C1A        77.5102   57.7894   38.0680 ac         1 CLA     -0.015100
     26 C1B        78.4758   60.6519   41.3474 cr         1 CLA      0.054700
     27 C1C        74.5948   59.7385   43.2820 cn         1 CLA     -0.005600
     28 C1D        73.4561   57.0962   39.9459 ap         1 CLA     -0.047300
     29 O1A        80.7353   55.8728   34.2130 o2         1 CLA     -0.610800
     30 O1D        78.1057   54.5385   36.2049 o2         1 CLA     -0.558200
     31 C2         82.5604   54.8537   37.7865 c8         1 CLA     -0.325100
     32 C2A        78.8706   57.7379   37.3466 a1         1 CLA      0.098600
     33 C2B        78.9748   61.4622   42.3968 cb         1 CLA      0.088500
     34 C2C        73.5416   59.4129   44.1976 cb         1 CLA      0.053700
     35 C2D        73.0115   56.2325   38.8943 cb         1 CLA      0.058900
     36 O2A        81.5152   56.3968   36.2465 o1         1 CLA     -0.437200
     37 O2D        77.0485   54.0948   38.1635 o1         1 CLA     -0.357600
     38 C3         83.2711   53.7704   38.1494 c5         1 CLA      0.031200
     39 C3A        79.7171   58.7823   38.1453 a1         1 CLA      0.166800
     40 C3B        77.9733   61.5925   43.3963 cb         1 CLA      0.035000
     41 C3C        72.7213   58.4235   43.5140 cb         1 CLA     -0.089900
     42 C3D        74.1596   56.1311   38.0624 cb         1 CLA     -0.035900
     43 C4         82.6672   52.4309   38.6382 a3         1 CLA     -0.053300
     44 C4A        78.8055   59.1897   39.2916 ac         1 CLA      0.001800
     45 C4B        76.8522   60.8074   42.9398 cn         1 CLA     -0.020900
     46 C4C        73.2745   58.2260   42.1954 cr         1 CLA     -0.044400
     47 C4D        75.1231   56.9701   38.5179 c6         1 CLA     -0.046000
     48 C5         84.7896   53.8094   37.8048 a2         1 CLA     -0.070400
     49 C6         85.5458   55.1437   38.1568 a2         1 CLA      0.043900
     50 C7         85.6018   55.5694   39.6315 a2         1 CLA     -0.150000
     51 C8         86.4688   56.7736   39.9467 a1         1 CLA      0.064200
     52 C9         87.9656   56.3842   39.6570 a3         1 CLA     -0.259300
     53 C10        86.2720   57.3064   41.4179 a2         1 CLA     -0.071900
     54 C11        84.8565   57.7195   41.8370 a2         1 CLA      0.014500
     55 C12        84.7730   58.6680   42.9599 a2         1 CLA     -0.112100
     56 C13        85.4328   58.1700   44.2719 a1         1 CLA      0.089200
     57 C14        84.9202   56.7808   44.7080 a3         1 CLA     -0.239100
     58 C15        85.3481   59.3831   45.3267 a2         1 CLA     -0.102200
     59 C16        84.0200   59.8619   45.8321 a2         1 CLA      0.023900
     60 C17        84.2790   60.6488   47.1558 a2         1 CLA     -0.105700
     61 C18        83.0929   61.5358   47.5927 a1         1 CLA      0.206800
     62 C19        81.7391   60.8586   47.8664 a3         1 CLA     -0.280100
     63 C20        83.4763   62.3997   48.8523 a3         1 CLA     -0.280100
     64 NC         74.4127   59.0458   42.1291 nx         1 CLA     -0.309200
     65 MG         75.8710   59.0548   40.5811 mg         1 CLA      0.895000
     66 HMD3       71.8350   54.6480   38.1645 dc         1 CLA      0.064300
     67 HMD2       71.2014   55.2936   39.6800 dc         1 CLA      0.064300
     68 HMD1       71.0630   56.2682   38.1146 dc         1 CLA      0.064300
     69 HMC3       73.6938   61.0383   45.7273 dc         1 CLA      0.052100
     70 HMC2       72.6025   59.7074   46.1578 dc         1 CLA      0.052100
     71 HMC1       74.2937   59.5387   46.1959 dc         1 CLA      0.052100
     72 HMB3       80.3538   62.6566   43.4677 dc         1 CLA      0.063600
     73 HMB2       81.0344   61.1358   42.6922 dc         1 CLA      0.063600
     74 HMB1       80.6836   62.4707   41.5580 dc         1 CLA      0.063600
     75 HMA3       81.5454   59.0054   39.3622 dc         1 CLA      0.058300
     76 HMA2       81.0848   57.3045   38.8797 dc         1 CLA      0.058300
     77 HMA1       81.8936   58.2970   37.7647 dc         1 CLA      0.058300
     78 HED3       78.0833   52.4218   37.2579 dc         1 CLA      0.079300
     79 HED2       78.8523   53.2764   38.5746 dc         1 CLA      0.079300
     80 HED1       77.4078   52.2372   38.9636 dc         1 CLA      0.079300
     81 HBC3       73.0361   55.8219   44.1414 dc         1 CLA      0.016300
     82 HBC2       71.7453   55.8549   45.4081 dc         1 CLA      0.016300
     83 HBC1       71.3636   55.4095   43.7746 dc         1 CLA      0.016300
     84 HBB2       78.5874   62.6292   46.6521 da         1 CLA      0.183000
     85 HBB1       79.6564   61.3010   45.6149 da         1 CLA      0.183000
     86 HBA2       80.2796   58.4153   34.1270 dc         1 CLA      0.029400
     87 HBA1       80.9895   58.6510   35.6809 dc         1 CLA      0.029400
     88 HAC2       71.3593   58.0688   45.2042 dc         1 CLA      0.029300
     89 HAC1       70.7742   57.6692   43.5946 dc         1 CLA      0.029300
     90 HAA2       78.2222   57.4184   35.3882 dc         1 CLA      0.028700
     91 HAA1       78.4210   59.1252   35.6732 dc         1 CLA      0.028700
     92 H203       84.3095   63.1464   48.6100 dc         1 CLA      0.065600
     93 H202       82.5883   62.9467   49.2360 dc         1 CLA      0.065600
     94 H201       83.8405   61.7130   49.5749 dc         1 CLA      0.065600
     95 H193       81.8260   60.3324   48.7592 dc         1 CLA      0.065600
     96 H192       81.0218   61.6411   48.0127 dc         1 CLA      0.065600
     97 H191       81.5011   60.3079   47.0238 dc         1 CLA      0.065600
     98 H172       84.4242   59.8928   47.8958 dc         1 CLA      0.027600
     99 H171       85.1594   61.2994   47.0639 dc         1 CLA      0.027600
    100 H162       83.5226   60.4794   45.1021 dc         1 CLA      0.002900
    101 H161       83.3263   58.9929   46.1605 dc         1 CLA      0.002900
    102 H152       85.8528   58.9608   46.2346 dc         1 CLA      0.029100
    103 H151       85.9302   60.2232   44.9604 dc         1 CLA      0.029100
    104 H143       85.1943   56.0782   43.9164 dc         1 CLA      0.063600
    105 H142       85.5511   56.4963   45.5487 dc         1 CLA      0.063600
    106 H141       83.9013   56.8282   45.0791 dc         1 CLA      0.063600
    107 H122       85.3260   59.5184   42.5462 dc         1 CLA      0.032500
    108 H121       83.7739   59.0224   43.1143 dc         1 CLA      0.032500
    109 H112       84.3645   58.2200   41.0100 dc         1 CLA      0.006600
    110 H111       84.1668   56.9381   41.9909 dc         1 CLA      0.006600
    111 H102       86.7344   56.5531   42.1566 dc         1 CLA      0.024100
    112 H101       86.9457   58.1998   41.5561 dc         1 CLA      0.024100
    113 HHD        71.7685   56.9470   41.2854 da         1 CLA      0.174300
    114 HHC        75.6947   61.0135   44.5436 da         1 CLA      0.136800
    115 HHB        80.2034   60.5057   40.1089 da         1 CLA      0.138300
    116 HBD        76.4151   56.2279   35.7814 dc         1 CLA      0.107700
    117 HAB        77.0546   62.8015   44.8714 da         1 CLA      0.155200
    118 H93        88.3012   55.5132   40.1196 dc         1 CLA      0.069500
    119 H92        88.0486   56.2552   38.6316 dc         1 CLA      0.069500
    120 H91        88.6360   57.1547   39.9403 dc         1 CLA      0.069500
    121 H8         86.1259   57.6054   39.3012 dc         1 CLA      0.029300
    122 H72        84.5711   55.8554   39.7675 dc         1 CLA      0.044400
    123 H71        85.8845   54.7288   40.2996 dc         1 CLA      0.044400
    124 H62        86.5285   54.9007   37.8458 dc         1 CLA      0.015600
    125 H61        85.2242   56.0495   37.5598 dc         1 CLA      0.015600
    126 H52        85.1375   52.9839   38.3572 dc         1 CLA      0.033200
    127 H51        84.9771   53.6304   36.6887 dc         1 CLA      0.033200
    128 H43        81.6784   52.6245   38.7481 dc         1 CLA      0.037000
    129 H42        82.9570   51.6461   38.0021 dc         1 CLA      0.037000
    130 H41        82.9130   52.1907   39.5804 dc         1 CLA      0.037000
    131 H3A        79.7614   59.7189   37.5054 dc         1 CLA      0.041100
    132 H2A        79.2313   56.6704   37.5576 dc         1 CLA      0.083100
    133 H2         82.5022   55.6699   38.5134 da         1 CLA      0.180900
    134 H18        82.9649   62.2422   46.8263 dc         1 CLA     -0.003900
    135 H13        86.4866   58.1177   44.0320 dc         1 CLA      0.019700
    136 H12        81.4044   54.3368   36.0267 dc         1 CLA      0.120400
    137 H11        82.9751   55.0647   35.5843 dc         1 CLA      0.120400
    138 C1         68.2392   61.9618   50.8643 Z1         2 LUT      0.509236
    139 C2         67.0411   61.7479   51.8173 Z2         2 LUT     -0.434695
    140 C3         66.0404   62.8902   51.8526 Z3         2 LUT      0.437453
    141 O3         65.8890   63.3966   53.1525 S1         2 LUT     -0.547129
    142 C4         66.2476   64.0887   50.8766 Z4         2 LUT     -0.468603
    143 C5         66.8052   63.5965   49.5886 Z5         2 LUT      0.279246
    144 C6         67.7484   62.5839   49.5790 Z6         2 LUT     -0.305473
    145 C7         68.3431   62.0900   48.3116 Z7         2 LUT      0.069402
    146 C8         69.6075   62.3400   47.8659 Z8         2 LUT     -0.191631
    147 C9         70.0784   62.0794   46.5239 Z9         2 LUT      0.196698
    148 C10        71.0845   62.9498   46.0439 Y1         2 LUT     -0.208611
    149 C11        71.7153   62.9385   44.7084 Y2         2 LUT      0.030784
    150 C12        72.8079   63.7063   44.4778 Y3         2 LUT     -0.220316
    151 C13        73.6264   63.6043   43.2450 Y4         2 LUT      0.215937
    152 C14        74.8465   64.2651   43.2993 Y5         2 LUT     -0.185793
    153 C15        75.9652   64.3813   42.3892 Y6         2 LUT     -0.057835
    154 C16        69.0128   60.6471   50.6347 Y7         2 LUT     -0.405615
    155 C17        69.2234   62.9972   51.6128 Y7         2 LUT     -0.405615
    156 C18        66.2487   64.4196   48.4304 Y9         2 LUT     -0.369639
    157 C19        69.4959   60.9486   45.7933 W1         2 LUT     -0.333362
    158 C20        73.1673   62.8657   41.9985 W2         2 LUT     -0.323439
    159 C21        87.3951   65.5901   36.3358 Z1         2 LUT      0.406104
    160 C22        88.0714   65.0997   35.1387 Z2         2 LUT     -0.404965
    161 C23        88.1822   65.9751   33.8924 Z3         2 LUT      0.391255
    162 O23        88.6500   65.1043   32.8296 S1         2 LUT     -0.528210
    163 C24        86.8337   66.6992   33.6337 W6         2 LUT     -0.258361
    164 C25        85.8028   66.6635   34.5034 Z5         2 LUT      0.133546
    165 C26        85.9128   66.0857   35.9279 W8         2 LUT     -0.147008
    166 C27        85.2209   66.7878   37.0446 Z7         2 LUT      0.023843
    167 C28        84.1675   66.2406   37.6848 Z8         2 LUT     -0.216987
    168 C29        83.4874   66.6820   38.8871 Z9         2 LUT      0.206524
    169 C30        82.3096   66.0128   39.2298 Y1         2 LUT     -0.215556
    170 C31        81.4784   66.2177   40.4450 Y2         2 LUT      0.025142
    171 C32        80.3659   65.5277   40.8358 Y3         2 LUT     -0.212209
    172 C33        79.5009   65.7921   41.9776 Y4         2 LUT      0.240937
    173 C34        78.3371   65.0867   41.8068 Y5         2 LUT     -0.218862
    174 C35        77.2279   64.8789   42.6472 Y6         2 LUT     -0.023547
    175 C36        88.3597   66.7043   36.7919 Y7         2 LUT     -0.393485
    176 C37        87.3453   64.4475   37.4321 Y7         2 LUT     -0.393485
    177 C38        84.5830   67.4203   34.1807 Y9         2 LUT     -0.387526
    178 C39        84.0888   67.8684   39.7216 W1         2 LUT     -0.322618
    179 C40        79.9106   66.5847   43.2588 W2         2 LUT     -0.358472
    180 H403       80.4406   65.8857   43.8257 R7         2 LUT      0.097720
    181 H402       80.5027   67.4590   42.9311 R7         2 LUT      0.097720
    182 H401       79.1335   67.0008   43.8234 R7         2 LUT      0.097720
    183 H393       83.6170   68.1890   40.6613 R4         2 LUT      0.082505
    184 H392       85.1629   67.7856   39.9195 R4         2 LUT      0.082505
    185 H391       84.1389   68.7143   39.1204 R4         2 LUT      0.082505
    186 H383       84.2125   67.2774   33.0977 R1         2 LUT      0.104030
    187 H382       83.7397   67.0909   34.8208 R1         2 LUT      0.104030
    188 H381       84.6164   68.4966   34.3893 R1         2 LUT      0.104030
    189 H373       86.9667   64.8104   38.3894 T4         2 LUT      0.089537
    190 H372       86.7323   63.6038   37.0445 T4         2 LUT      0.089537
    191 H371       88.3710   64.1455   37.6252 T4         2 LUT      0.089537
    192 H363       89.4286   66.5120   36.5681 T4         2 LUT      0.089537
    193 H362       88.1593   67.6340   36.1715 T4         2 LUT      0.089537
    194 H361       88.2298   66.9152   37.8338 T4         2 LUT      0.089537
    195 H222       89.0812   64.7375   35.2168 U2         2 LUT      0.127376
    196 H221       87.4225   64.2289   34.9133 U2         2 LUT      0.127376
    197 H203       72.1130   62.7392   42.0010 R7         2 LUT      0.087068
    198 H202       73.3798   63.3550   41.0410 R7         2 LUT      0.087068
    199 H201       73.7075   61.9525   42.0137 R7         2 LUT      0.087068
    200 H193       68.4452   61.0445   45.4836 R4         2 LUT      0.089716
    201 H192       70.0300   60.8053   44.8467 R4         2 LUT      0.089716
    202 H191       69.6767   60.0295   46.3014 R4         2 LUT      0.089716
    203 H183       65.2534   64.8931   48.6636 R1         2 LUT      0.094572
    204 H182       66.9308   65.2509   48.2403 R1         2 LUT      0.094572
    205 H181       66.3235   63.8844   47.4435 R1         2 LUT      0.094572
    206 H173       68.7579   63.7690   52.2224 T4         2 LUT      0.093752
    207 H172       69.8976   62.4448   52.2642 T4         2 LUT      0.093752
    208 H171       69.7990   63.5929   50.8160 T4         2 LUT      0.093752
    209 H163       68.3959   59.9800   50.0526 T4         2 LUT      0.093752
    210 H162       70.0047   60.8546   50.1649 T4         2 LUT      0.093752
    211 H161       69.2868   60.1070   51.5334 T4         2 LUT      0.093752
    212 HO3        65.5427   62.7677   53.8145 Q1         2 LUT      0.300121
    213 H8         70.2434   63.0179   48.4066 U7         2 LUT      0.080784
    214 H7         67.6990   61.7043   47.5449 U6         2 LUT      0.042190
    215 H42        65.2605   64.4961   50.7158 U5         2 LUT      0.145166
    216 H41        66.8599   64.9363   51.3047 U5         2 LUT      0.145166
    217 H35        77.1707   65.2735   43.5729 T3         2 LUT      0.077919
    218 H34        78.1489   64.5312   40.8727 T2         2 LUT      0.073626
    219 H32        80.0780   64.7836   40.0444 T1         2 LUT      0.092510
    220 H31        81.8015   66.9036   41.1575 U9         2 LUT      0.070048
    221 H30        81.9921   65.1547   38.5576 U8         2 LUT      0.085442
    222 H3         65.0573   62.4890   51.4751 U3         2 LUT     -0.031596
    223 H28        83.7155   65.4069   37.1257 U7         2 LUT      0.084728
    224 H27        85.6534   67.6490   37.5123 U6         2 LUT      0.087291
    225 H26        85.4458   65.0363   35.8412 Q6         2 LUT      0.075325
    226 H24        86.7099   67.2205   32.6723 Q5         2 LUT      0.094482
    227 H23        88.9380   66.6858   34.2235 U3         2 LUT     -0.024869
    228 H22        66.5297   60.8788   51.4363 U2         2 LUT      0.127376
    229 H21        67.4603   61.3866   52.8417 U2         2 LUT      0.127376
    230 H15        75.7818   63.9324   41.4538 T3         2 LUT      0.093200
    231 H14        75.0909   64.6997   44.2791 T2         2 LUT      0.068865
    232 H12        73.2729   64.3647   45.2823 T1         2 LUT      0.095507
    233 H11        71.3845   62.2133   43.9783 U9         2 LUT      0.068930
    234 H10        71.4865   63.7797   46.7124 U8         2 LUT      0.083911
    235 H1         88.8399   65.6160   32.0160 Q1         2 LUT      0.297311
@<TRIPOS>BOND
    1     6     1 1
    2     7     2 1
    3     8     3 1
    4     9     4 1
    5    11     4 1
    6    12     6 1
    7    13     9 1
    8    16     9 1
    9    25     5 1
   10    25    16 1
   11    26    10 1
   12    26    17 1
   13    27    18 1
   14    28    14 1
   15    28    19 1
   16    29    12 1
   17    30    13 1
   18    31    24 1
   19    32     1 1
   20    32    25 1
   21    33    21 1
   22    33    26 1
   23    34    22 1
   24    34    27 1
   25    35    23 1
   26    35    28 1
   27    36    12 1
   28    36    24 1
   29    37    13 1
   30    37    15 1
   31    38    31 1
   32    39    20 1
   33    39    32 1
   34    40     2 1
   35    40    33 1
   36    41     3 1
   37    41    34 1
   38    42     4 1
   39    42    35 1
   40    43    38 1
   41    44     5 1
   42    44    17 1
   43    44    39 1
   44    45    10 1
   45    45    18 1
   46    45    40 1
   47    46    19 1
   48    46    41 1
   49    47    14 1
   50    47    16 1
   51    47    42 1
   52    48    38 1
   53    49    48 1
   54    50    49 1
   55    51    50 1
   56    52    51 1
   57    53    51 1
   58    54    53 1
   59    55    54 1
   60    56    55 1
   61    57    56 1
   62    58    56 1
   63    59    58 1
   64    60    59 1
   65    61    60 1
   66    62    61 1
   67    63    61 1
   68    64    27 1
   69    64    46 1
   70    65     5 1
   71    65    10 1
   72    65    64 1
   73    65    14 1
   74    66    23 1
   75    67    23 1
   76    68    23 1
   77    69    22 1
   78    70    22 1
   79    71    22 1
   80    72    21 1
   81    73    21 1
   82    74    21 1
   83    75    20 1
   84    76    20 1
   85    77    20 1
   86    78    15 1
   87    79    15 1
   88    80    15 1
   89    81     8 1
   90    82     8 1
   91    83     8 1
   92    84     7 1
   93    85     7 1
   94    86     6 1
   95    87     6 1
   96    88     3 1
   97    89     3 1
   98    90     1 1
   99    91     1 1
  100    92    63 1
  101    93    63 1
  102    94    63 1
  103    95    62 1
  104    96    62 1
  105    97    62 1
  106    98    60 1
  107    99    60 1
  108   100    59 1
  109   101    59 1
  110   102    58 1
  111   103    58 1
  112   104    57 1
  113   105    57 1
  114   106    57 1
  115   107    55 1
  116   108    55 1
  117   109    54 1
  118   110    54 1
  119   111    53 1
  120   112    53 1
  121   113    19 1
  122   114    18 1
  123   115    17 1
  124   116     9 1
  125   117     2 1
  126   118    52 1
  127   119    52 1
  128   120    52 1
  129   121    51 1
  130   122    50 1
  131   123    50 1
  132   124    49 1
  133   125    49 1
  134   126    48 1
  135   127    48 1
  136   128    43 1
  137   129    43 1
  138   130    43 1
  139   131    39 1
  140   132    32 1
  141   133    31 1
  142   134    61 1
  143   135    56 1
  144   136    24 1
  145   137    24 1
  146   139   138 1
  147   140   139 1
  148   141   140 1
  149   142   140 1
  150   143   142 1
  151   144   138 1
  152   144   143 1
  153   145   144 1
  154   146   145 1
  155   147   146 1
  156   148   147 1
  157   149   148 1
  158   150   149 1
  159   151   150 1
  160   152   151 1
  161   153   152 1
  162   154   138 1
  163   155   138 1
  164   156   143 1
  165   157   147 1
  166   158   151 1
  167   160   159 1
  168   161   160 1
  169   162   161 1
  170   163   161 1
  171   164   163 1
  172   165   159 1
  173   165   164 1
  174   166   165 1
  175   167   166 1
  176   168   167 1
  177   169   168 1
  178   170   169 1
  179   171   170 1
  180   172   171 1
  181   173   172 1
  182   174   153 1
  183   174   173 1
  184   175   159 1
  185   176   159 1
  186   177   164 1
  187   178   168 1
  188   179   172 1
  189   180   179 1
  190   181   179 1
  191   182   179 1
  192   183   178 1
  193   184   178 1
  194   185   178 1
  195   186   177 1
  196   187   177 1
  197   188   177 1
  198   189   176 1
  199   190   176 1
  200   191   176 1
  201   192   175 1
  202   193   175 1
  203   194   175 1
  204   195   160 1
  205   196   160 1
  206   197   158 1
  207   198   158 1
  208   199   158 1
  209   200   157 1
  210   201   157 1
  211   202   157 1
  212   203   156 1
  213   204   156 1
  214   205   156 1
  215   206   155 1
  216   207   155 1
  217   208   155 1
  218   209   154 1
  219   210   154 1
  220   211   154 1
  221   212   141 1
  222   213   146 1
  223   214   145 1
  224   215   142 1
  225   216   142 1
  226   217   174 1
  227   218   173 1
  228   219   171 1
  229   220   170 1
  230   221   169 1
  231   222   140 1
  232   223   167 1
  233   224   166 1
  234   225   165 1
  235   226   163 1
  236   227   161 1
  237   228   139 1
  238   229   139 1
  239   230   153 1
  240   231   152 1
  241   232   150 1
  242   233   149 1
  243   234   148 1
  244   235   162 1
  245   65    153 1
  246   65    174 1
@<TRIPOS>SUBSTRUCTURE
      1 CLA               1 ****               0 ****  **** 
      2 LUT             138 ****               0 ****  **** 
