@<TRIPOS>MOLECULE
Cpptraj generated mol2 file.
  235   246     2     0     0
SMALL
USER_CHARGES


@<TRIPOS>ATOM
      1 CAA        77.5623   57.6811   34.0242 a2         1 CLA     -0.055900
      2 CAB        77.8501   61.5484   43.1055 c8         1 CLA     -0.148500
      3 CAC        70.8399   57.7756   42.7380 a2         1 CLA     -0.012600
      4 CAD        73.1897   55.3433   35.4555 ck         1 CLA      0.398800
      5 NA         76.4750   58.3974   37.2920 ns         1 CLA     -0.225500
      6 CBA        78.8651   57.5415   33.1534 a2         1 CLA     -0.135000
      7 CBB        78.9278   61.3062   43.8748 c0         1 CLA     -0.395200
      8 CBC        71.0236   56.3253   42.8810 a3         1 CLA     -0.037700
      9 CBD        74.6270   55.8260   35.0697 a1         1 CLA     -0.053900
     10 NB         76.5941   59.8433   40.0720 nm         1 CLA     -0.295700
     11 OBD        72.4912   54.5449   34.8222 o2         1 CLA     -0.494600
     12 CGA        79.1375   56.1366   32.7782 c4         1 CLA      0.827000
     13 CGD        75.5479   54.5794   34.8611 c4         1 CLA      0.655300
     14 ND         73.7281   57.4730   38.1886 nm         1 CLA     -0.291600
     15 CED        76.0989   52.3605   35.5170 a3         1 CLA      0.005400
     16 CHA        75.1275   56.7673   36.1736 cs         1 CLA     -0.123800
     17 CHB        78.3366   59.5830   38.4040 aa         1 CLA     -0.291900
     18 CHC        75.2735   60.3108   41.9901 aa         1 CLA     -0.090400
     19 CHD        71.9372   57.4743   39.7872 aa         1 CLA     -0.052000
     20 CMA        79.7291   57.2419   36.8971 a3         1 CLA     -0.230700
     21 CMB        80.0330   61.1304   40.5390 a3         1 CLA     -0.180800
     22 CMC        72.8875   59.9629   43.8946 a3         1 CLA     -0.134000
     23 CMD        70.4731   55.5040   37.6418 a3         1 CLA     -0.141100
     24 C1         79.8891   54.1655   33.7238 a2         1 CLA      0.023000
     25 C1A        76.3184   57.5191   36.2978 ac         1 CLA     -0.015100
     26 C1B        77.8158   60.0071   39.6570 cr         1 CLA      0.054700
     27 C1C        73.9919   59.6494   41.7204 cn         1 CLA     -0.005600
     28 C1D        72.4488   57.0672   38.5327 ap         1 CLA     -0.047300
     29 O1A        78.9197   55.6457   31.6958 o2         1 CLA     -0.610800
     30 O1D        76.3839   54.4710   33.9710 o2         1 CLA     -0.558200
     31 C2         80.5181   53.5815   34.9775 c8         1 CLA     -0.325100
     32 C2A        77.6386   57.3203   35.4919 a1         1 CLA      0.098600
     33 C2B        78.6065   60.7541   40.6585 cb         1 CLA      0.088500
     34 C2C        72.8862   59.4178   42.6189 cb         1 CLA      0.053700
     35 C2D        71.8349   56.1460   37.5985 cb         1 CLA      0.058900
     36 O2A        79.7510   55.5784   33.8837 o1         1 CLA     -0.437200
     37 O2D        75.4265   53.6008   35.8222 o1         1 CLA     -0.357600
     38 C3         81.3334   52.5777   34.9170 c5         1 CLA      0.031200
     39 C3A        78.6128   58.1757   36.2968 a1         1 CLA      0.166800
     40 C3B        77.7073   60.9379   41.7148 cb         1 CLA      0.035000
     41 C3C        72.0579   58.4573   42.0772 cb         1 CLA     -0.089900
     42 C3D        72.8696   56.0435   36.6881 cb         1 CLA     -0.035900
     43 C4         80.9457   51.2171   35.2867 a3         1 CLA     -0.053300
     44 C4A        77.7794   58.7720   37.4146 ac         1 CLA      0.001800
     45 C4B        76.4157   60.4215   41.2832 cn         1 CLA     -0.020900
     46 C4C        72.5842   58.1929   40.7820 cr         1 CLA     -0.044400
     47 C4D        74.0069   56.7891   37.0685 c6         1 CLA     -0.046000
     48 C5         82.7420   52.7315   34.4972 a2         1 CLA     -0.070400
     49 C6         83.3708   54.0459   34.9616 a2         1 CLA      0.043900
     50 C7         83.4407   54.2668   36.4519 a2         1 CLA     -0.150000
     51 C8         84.1825   55.4174   37.0203 a1         1 CLA      0.064200
     52 C9         85.6245   55.7726   36.4117 a3         1 CLA     -0.259300
     53 C10        84.1552   55.3707   38.6015 a2         1 CLA     -0.071900
     54 C11        82.7959   55.6335   39.2570 a2         1 CLA      0.014500
     55 C12        82.7959   55.7256   40.7958 a2         1 CLA     -0.112100
     56 C13        81.4257   56.0078   41.4812 a1         1 CLA      0.089200
     57 C14        80.6704   57.1627   40.7352 a3         1 CLA     -0.239100
     58 C15        81.5369   56.3243   42.9995 a2         1 CLA     -0.102200
     59 C16        82.0723   57.7237   43.4080 a2         1 CLA      0.023900
     60 C17        82.2074   57.7862   44.9709 a2         1 CLA     -0.105700
     61 C18        83.0467   58.9661   45.6132 a1         1 CLA      0.206800
     62 C19        84.3992   59.3663   44.8934 a3         1 CLA     -0.280100
     63 C20        82.2309   60.2716   45.5404 a3         1 CLA     -0.280100
     64 NC         73.7718   58.8795   40.6011 nx         1 CLA     -0.309200
     65 MG         75.0391   58.7642   38.9940 mg         1 CLA      0.895000
     66 HMD3       69.8078   56.3704   37.4455 dc         1 CLA      0.064300
     67 HMD2       70.3070   54.8185   36.7722 dc         1 CLA      0.064300
     68 HMD1       70.1888   54.9247   38.5557 dc         1 CLA      0.064300
     69 HMC3       72.0774   59.7187   44.6160 dc         1 CLA      0.052100
     70 HMC2       73.8842   59.7225   44.3106 dc         1 CLA      0.052100
     71 HMC1       72.9344   61.0542   43.8196 dc         1 CLA      0.052100
     72 HMB3       80.6267   60.2335   40.2236 dc         1 CLA      0.063600
     73 HMB2       80.0708   61.9412   39.7940 dc         1 CLA      0.063600
     74 HMB1       80.3668   61.4049   41.5536 dc         1 CLA      0.063600
     75 HMA3       80.1479   57.7973   37.7041 dc         1 CLA      0.058300
     76 HMA2       79.3051   56.2924   37.2266 dc         1 CLA      0.058300
     77 HMA1       80.4175   57.0853   36.0882 dc         1 CLA      0.058300
     78 HED3       75.9191   51.6082   36.1989 dc         1 CLA      0.079300
     79 HED2       75.7955   52.0483   34.5804 dc         1 CLA      0.079300
     80 HED1       77.1242   52.3904   35.5710 dc         1 CLA      0.079300
     81 HBC3       71.8100   56.2465   43.6457 dc         1 CLA      0.016300
     82 HBC2       70.1680   55.8512   43.3443 dc         1 CLA      0.016300
     83 HBC1       71.3154   55.7262   41.9971 dc         1 CLA      0.016300
     84 HBB2       78.9835   61.7611   44.8064 da         1 CLA      0.183000
     85 HBB1       79.8264   60.7956   43.4986 da         1 CLA      0.183000
     86 HBA2       78.6553   58.1368   32.1945 dc         1 CLA      0.029400
     87 HBA1       79.6974   58.0585   33.6651 dc         1 CLA      0.029400
     88 HAC2       70.6665   58.2818   43.6818 dc         1 CLA      0.029300
     89 HAC1       69.9035   58.0089   42.1632 dc         1 CLA      0.029300
     90 HAA2       76.8773   57.1024   33.5046 dc         1 CLA      0.028700
     91 HAA1       77.2678   58.7039   33.9381 dc         1 CLA      0.028700
     92 H203       81.9040   60.5398   44.5229 dc         1 CLA      0.065600
     93 H202       81.3527   60.1581   46.2133 dc         1 CLA      0.065600
     94 H201       82.7713   61.0768   46.0523 dc         1 CLA      0.065600
     95 H193       84.1550   59.8015   43.9382 dc         1 CLA      0.065600
     96 H192       84.8810   60.1735   45.4314 dc         1 CLA      0.065600
     97 H191       85.0768   58.5031   44.8270 dc         1 CLA      0.065600
     98 H172       81.2697   57.7555   45.3263 dc         1 CLA      0.027600
     99 H171       82.6872   56.8801   45.2962 dc         1 CLA      0.027600
    100 H162       83.0520   57.7885   42.9817 dc         1 CLA      0.002900
    101 H161       81.5283   58.5423   42.9265 dc         1 CLA      0.002900
    102 H152       80.5379   56.2790   43.3093 dc         1 CLA      0.029100
    103 H151       82.1484   55.5597   43.4768 dc         1 CLA      0.029100
    104 H143       79.8135   57.6053   41.3069 dc         1 CLA      0.063600
    105 H142       81.3906   57.9270   40.4439 dc         1 CLA      0.063600
    106 H141       80.3243   56.6547   39.8648 dc         1 CLA      0.063600
    107 H122       83.1843   54.7580   41.2342 dc         1 CLA      0.032500
    108 H121       83.4799   56.5395   40.9769 dc         1 CLA      0.032500
    109 H112       82.3838   56.6148   38.7558 dc         1 CLA      0.006600
    110 H111       82.0427   54.9717   39.0353 dc         1 CLA      0.006600
    111 H102       84.6094   54.4565   38.8695 dc         1 CLA      0.024100
    112 H101       84.9335   56.0709   38.9748 dc         1 CLA      0.024100
    113 HHD        70.8969   57.1338   39.9962 da         1 CLA      0.174300
    114 HHC        75.2326   60.6400   43.0310 da         1 CLA      0.136800
    115 HHB        79.3180   59.9217   38.2192 da         1 CLA      0.138300
    116 HBD        74.5395   56.2740   34.0513 dc         1 CLA      0.107700
    117 HAB        77.0348   62.2398   43.4350 da         1 CLA      0.155200
    118 H93        85.7367   56.7517   36.7137 dc         1 CLA      0.069500
    119 H92        86.2945   55.1500   37.0532 dc         1 CLA      0.069500
    120 H91        85.7975   55.6433   35.3505 dc         1 CLA      0.069500
    121 H8         83.7458   56.3413   36.7713 dc         1 CLA      0.029300
    122 H72        82.4741   54.0854   36.8261 dc         1 CLA      0.044400
    123 H71        84.0339   53.4449   36.8713 dc         1 CLA      0.044400
    124 H62        84.3510   53.8928   34.5613 dc         1 CLA      0.015600
    125 H61        82.9763   54.9046   34.4351 dc         1 CLA      0.015600
    126 H52        83.3065   51.9634   35.0069 dc         1 CLA      0.033200
    127 H51        82.6685   52.7056   33.3798 dc         1 CLA      0.033200
    128 H43        80.0598   51.3114   35.8888 dc         1 CLA      0.037000
    129 H42        80.8998   50.5914   34.3475 dc         1 CLA      0.037000
    130 H41        81.7697   50.8087   35.9187 dc         1 CLA      0.037000
    131 H3A        79.0846   59.0512   35.7866 dc         1 CLA      0.041100
    132 H2A        77.7272   56.2717   35.5353 dc         1 CLA      0.083100
    133 H2         80.4520   54.1349   35.9040 da         1 CLA      0.180900
    134 H18        83.1056   58.6786   46.6783 dc         1 CLA     -0.003900
    135 H13        80.9700   54.9982   41.4688 dc         1 CLA      0.019700
    136 H12        79.0608   53.4558   33.4631 dc         1 CLA      0.120400
    137 H11        80.5999   54.0068   32.9386 dc         1 CLA      0.120400
    138 C1         67.3695   61.1898   49.9611 Z1         2 LUT      0.509236
    139 C2         67.5470   62.5627   50.6980 Z2         2 LUT     -0.434695
    140 C3         66.2580   63.3794   50.9604 Z3         2 LUT      0.437453
    141 O3         66.5351   64.7149   51.3839 S1         2 LUT     -0.547129
    142 C4         65.2845   63.2583   49.6872 Z4         2 LUT     -0.468603
    143 C5         65.8137   62.5711   48.4970 Z5         2 LUT      0.279246
    144 C6         66.6539   61.5030   48.6038 Z6         2 LUT     -0.305473
    145 C7         67.4498   61.0070   47.4945 Z7         2 LUT      0.069402
    146 C8         68.1720   61.6782   46.5412 Z8         2 LUT     -0.191631
    147 C9         68.8624   61.3649   45.2997 Z9         2 LUT      0.196698
    148 C10        69.6760   62.2906   44.6762 Y1         2 LUT     -0.208611
    149 C11        70.3024   62.1547   43.3958 Y2         2 LUT      0.030784
    150 C12        71.3401   62.8982   42.9265 Y3         2 LUT     -0.220316
    151 C13        72.1215   62.8597   41.6949 Y4         2 LUT      0.215937
    152 C14        73.3005   63.5607   41.6101 Y5         2 LUT     -0.185793
    153 C15        74.3219   63.5183   40.6189 Y6         2 LUT     -0.057835
    154 C16        66.4436   60.2298   50.6727 Y7         2 LUT     -0.405615
    155 C17        68.8210   60.5112   49.8273 Y7         2 LUT     -0.405615
    156 C18        65.7425   63.4560   47.2186 Y9         2 LUT     -0.369639
    157 C19        68.5405   59.9784   44.8163 W1         2 LUT     -0.333362
    158 C20        71.6234   61.9262   40.5935 W2         2 LUT     -0.323439
    159 C21        85.9743   64.2228   34.8286 Z1         2 LUT      0.406104
    160 C22        86.8107   63.5788   33.6141 Z2         2 LUT     -0.404965
    161 C23        86.9233   64.5770   32.4860 Z3         2 LUT      0.391255
    162 O23        87.6898   63.9612   31.4531 S1         2 LUT     -0.528210
    163 C24        85.7046   65.4986   32.1757 W6         2 LUT     -0.258361
    164 C25        84.6092   65.5772   32.9070 Z5         2 LUT      0.133546
    165 C26        84.5097   64.7677   34.2206 W8         2 LUT     -0.147008
    166 C27        83.7339   65.4625   35.3389 Z7         2 LUT      0.023843
    167 C28        82.7454   64.9450   36.0876 Z8         2 LUT     -0.216987
    168 C29        81.9676   65.5821   37.1742 Z9         2 LUT      0.206524
    169 C30        80.8870   64.8248   37.6501 Y1         2 LUT     -0.215556
    170 C31        80.0368   65.0912   38.7628 Y2         2 LUT      0.025142
    171 C32        78.9198   64.2854   38.9208 Y3         2 LUT     -0.212209
    172 C33        77.9802   64.3915   39.9887 Y4         2 LUT      0.240937
    173 C34        76.7584   63.8228   39.9950 Y5         2 LUT     -0.218862
    174 C35        75.6494   63.8723   40.9090 Y6         2 LUT     -0.023547
    175 C36        86.8383   65.3510   35.5097 Y7         2 LUT     -0.393485
    176 C37        85.8820   63.1311   35.9302 Y7         2 LUT     -0.393485
    177 C38        83.4506   66.5136   32.5518 Y9         2 LUT     -0.387526
    178 C39        82.4560   66.8898   37.6662 W1         2 LUT     -0.322618
    179 C40        78.3878   65.1772   41.1879 W2         2 LUT     -0.358472
    180 H403       77.9035   64.8036   42.0398 R7         2 LUT      0.097720
    181 H402       79.3984   65.2242   41.5424 R7         2 LUT      0.097720
    182 H401       78.0636   66.1955   41.0818 R7         2 LUT      0.097720
    183 H393       83.4698   66.8542   38.0638 R4         2 LUT      0.082505
    184 H392       82.3953   67.5631   36.8349 R4         2 LUT      0.082505
    185 H391       81.8402   67.4273   38.4097 R4         2 LUT      0.082505
    186 H383       82.6277   65.8789   32.1735 R1         2 LUT      0.104030
    187 H382       82.9636   66.9767   33.4835 R1         2 LUT      0.104030
    188 H381       83.7548   67.3741   31.8821 R1         2 LUT      0.104030
    189 H373       85.3494   62.2364   35.6146 T4         2 LUT      0.089537
    190 H372       86.9212   62.8784   36.2543 T4         2 LUT      0.089537
    191 H371       85.3767   63.5707   36.7793 T4         2 LUT      0.089537
    192 H363       86.8825   66.3589   34.9151 T4         2 LUT      0.089537
    193 H362       86.5278   65.7982   36.4823 T4         2 LUT      0.089537
    194 H361       87.8518   65.0393   35.5590 T4         2 LUT      0.089537
    195 H222       87.7974   63.2951   33.9657 U2         2 LUT      0.127376
    196 H221       86.2792   62.7432   33.1957 U2         2 LUT      0.127376
    197 H203       72.2166   61.9443   39.7122 R7         2 LUT      0.087068
    198 H202       71.5184   60.8841   40.7015 R7         2 LUT      0.087068
    199 H201       70.5945   62.2113   40.3108 R7         2 LUT      0.087068
    200 H193       68.9082   59.6835   43.8476 R4         2 LUT      0.089716
    201 H192       68.7172   59.2000   45.5399 R4         2 LUT      0.089716
    202 H191       67.4834   59.9523   44.6937 R4         2 LUT      0.089716
    203 H183       64.7332   63.8557   47.1017 R1         2 LUT      0.094572
    204 H182       66.4002   64.3355   47.1868 R1         2 LUT      0.094572
    205 H181       65.9923   62.8992   46.3416 R1         2 LUT      0.094572
    206 H173       69.0658   60.1810   50.8309 T4         2 LUT      0.093752
    207 H172       68.8191   59.7328   49.0670 T4         2 LUT      0.093752
    208 H171       69.5531   61.1697   49.4913 T4         2 LUT      0.093752
    209 H163       66.7054   60.2618   51.7543 T4         2 LUT      0.093752
    210 H162       65.3604   60.4827   50.7400 T4         2 LUT      0.093752
    211 H161       66.5866   59.1600   50.3183 T4         2 LUT      0.093752
    212 HO3        65.6875   65.0717   51.8023 Q1         2 LUT      0.300121
    213 H8         68.1427   62.7402   46.6766 U7         2 LUT      0.080784
    214 H7         67.3329   59.9607   47.3025 U6         2 LUT      0.042190
    215 H42        64.3826   62.7874   50.0107 U5         2 LUT      0.145166
    216 H41        64.8795   64.2262   49.4047 U5         2 LUT      0.145166
    217 H35        75.7914   64.1215   42.0017 T3         2 LUT      0.077919
    218 H34        76.6136   63.2467   39.0661 T2         2 LUT      0.073626
    219 H32        78.6937   63.5535   38.1796 T1         2 LUT      0.092510
    220 H31        80.4016   65.8476   39.4669 U9         2 LUT      0.070048
    221 H30        80.6837   63.8717   37.0002 U8         2 LUT      0.085442
    222 H3         65.5992   62.9409   51.8244 U3         2 LUT     -0.031596
    223 H28        82.4883   63.8972   35.9251 U7         2 LUT      0.084728
    224 H27        84.1257   66.4503   35.6502 U6         2 LUT      0.087291
    225 H26        83.9933   63.9115   33.7463 Q6         2 LUT      0.075325
    226 H24        85.7885   66.0868   31.2617 Q5         2 LUT      0.094482
    227 H23        87.7180   65.3219   32.7001 U3         2 LUT     -0.024869
    228 H22        67.9677   62.3807   51.7187 U2         2 LUT      0.127376
    229 H21        68.1999   63.1657   50.1279 U2         2 LUT      0.127376
    230 H15        74.0261   63.1183   39.6135 T3         2 LUT      0.093200
    231 H14        73.5012   64.0338   42.5769 T2         2 LUT      0.068865
    232 H12        71.5448   63.6639   43.6929 T1         2 LUT      0.095507
    233 H11        70.0262   61.3747   42.7222 U9         2 LUT      0.068930
    234 H10        69.7243   63.2157   45.2390 U8         2 LUT      0.083911
    235 H1         87.2176   63.9662   30.5828 Q1         2 LUT      0.297311
@<TRIPOS>BOND
    1     6     1 1
    2     7     2 1
    3     8     3 1
    4     9     4 1
    5    11     4 1
    6    12     6 1
    7    13     9 1
    8    16     9 1
    9    25     5 1
   10    25    16 1
   11    26    10 1
   12    26    17 1
   13    27    18 1
   14    28    14 1
   15    28    19 1
   16    29    12 1
   17    30    13 1
   18    31    24 1
   19    32     1 1
   20    32    25 1
   21    33    21 1
   22    33    26 1
   23    34    22 1
   24    34    27 1
   25    35    23 1
   26    35    28 1
   27    36    12 1
   28    36    24 1
   29    37    13 1
   30    37    15 1
   31    38    31 1
   32    39    20 1
   33    39    32 1
   34    40     2 1
   35    40    33 1
   36    41     3 1
   37    41    34 1
   38    42     4 1
   39    42    35 1
   40    43    38 1
   41    44     5 1
   42    44    17 1
   43    44    39 1
   44    45    10 1
   45    45    18 1
   46    45    40 1
   47    46    19 1
   48    46    41 1
   49    47    14 1
   50    47    16 1
   51    47    42 1
   52    48    38 1
   53    49    48 1
   54    50    49 1
   55    51    50 1
   56    52    51 1
   57    53    51 1
   58    54    53 1
   59    55    54 1
   60    56    55 1
   61    57    56 1
   62    58    56 1
   63    59    58 1
   64    60    59 1
   65    61    60 1
   66    62    61 1
   67    63    61 1
   68    64    27 1
   69    64    46 1
   70    65     5 1
   71    65    10 1
   72    65    64 1
   73    65    14 1
   74    66    23 1
   75    67    23 1
   76    68    23 1
   77    69    22 1
   78    70    22 1
   79    71    22 1
   80    72    21 1
   81    73    21 1
   82    74    21 1
   83    75    20 1
   84    76    20 1
   85    77    20 1
   86    78    15 1
   87    79    15 1
   88    80    15 1
   89    81     8 1
   90    82     8 1
   91    83     8 1
   92    84     7 1
   93    85     7 1
   94    86     6 1
   95    87     6 1
   96    88     3 1
   97    89     3 1
   98    90     1 1
   99    91     1 1
  100    92    63 1
  101    93    63 1
  102    94    63 1
  103    95    62 1
  104    96    62 1
  105    97    62 1
  106    98    60 1
  107    99    60 1
  108   100    59 1
  109   101    59 1
  110   102    58 1
  111   103    58 1
  112   104    57 1
  113   105    57 1
  114   106    57 1
  115   107    55 1
  116   108    55 1
  117   109    54 1
  118   110    54 1
  119   111    53 1
  120   112    53 1
  121   113    19 1
  122   114    18 1
  123   115    17 1
  124   116     9 1
  125   117     2 1
  126   118    52 1
  127   119    52 1
  128   120    52 1
  129   121    51 1
  130   122    50 1
  131   123    50 1
  132   124    49 1
  133   125    49 1
  134   126    48 1
  135   127    48 1
  136   128    43 1
  137   129    43 1
  138   130    43 1
  139   131    39 1
  140   132    32 1
  141   133    31 1
  142   134    61 1
  143   135    56 1
  144   136    24 1
  145   137    24 1
  146   139   138 1
  147   140   139 1
  148   141   140 1
  149   142   140 1
  150   143   142 1
  151   144   138 1
  152   144   143 1
  153   145   144 1
  154   146   145 1
  155   147   146 1
  156   148   147 1
  157   149   148 1
  158   150   149 1
  159   151   150 1
  160   152   151 1
  161   153   152 1
  162   154   138 1
  163   155   138 1
  164   156   143 1
  165   157   147 1
  166   158   151 1
  167   160   159 1
  168   161   160 1
  169   162   161 1
  170   163   161 1
  171   164   163 1
  172   165   159 1
  173   165   164 1
  174   166   165 1
  175   167   166 1
  176   168   167 1
  177   169   168 1
  178   170   169 1
  179   171   170 1
  180   172   171 1
  181   173   172 1
  182   174   153 1
  183   174   173 1
  184   175   159 1
  185   176   159 1
  186   177   164 1
  187   178   168 1
  188   179   172 1
  189   180   179 1
  190   181   179 1
  191   182   179 1
  192   183   178 1
  193   184   178 1
  194   185   178 1
  195   186   177 1
  196   187   177 1
  197   188   177 1
  198   189   176 1
  199   190   176 1
  200   191   176 1
  201   192   175 1
  202   193   175 1
  203   194   175 1
  204   195   160 1
  205   196   160 1
  206   197   158 1
  207   198   158 1
  208   199   158 1
  209   200   157 1
  210   201   157 1
  211   202   157 1
  212   203   156 1
  213   204   156 1
  214   205   156 1
  215   206   155 1
  216   207   155 1
  217   208   155 1
  218   209   154 1
  219   210   154 1
  220   211   154 1
  221   212   141 1
  222   213   146 1
  223   214   145 1
  224   215   142 1
  225   216   142 1
  226   217   174 1
  227   218   173 1
  228   219   171 1
  229   220   170 1
  230   221   169 1
  231   222   140 1
  232   223   167 1
  233   224   166 1
  234   225   165 1
  235   226   163 1
  236   227   161 1
  237   228   139 1
  238   229   139 1
  239   230   153 1
  240   231   152 1
  241   232   150 1
  242   233   149 1
  243   234   148 1
  244   235   162 1
  245   65    153 1
  246   65    174 1
@<TRIPOS>SUBSTRUCTURE
      1 CLA               1 ****               0 ****  **** 
      2 LUT             138 ****               0 ****  **** 
