@<TRIPOS>MOLECULE
Cpptraj generated mol2 file.
  235   246     2     0     0
SMALL
USER_CHARGES


@<TRIPOS>ATOM
      1 CAA        77.4252   58.7659   34.8797 a2         1 CLA     -0.055900
      2 CAB        77.7716   62.4693   44.1152 c8         1 CLA     -0.148500
      3 CAC        70.9151   58.1549   43.7635 a2         1 CLA     -0.012600
      4 CAD        73.6642   55.9869   36.2340 ck         1 CLA      0.398800
      5 NA         76.6872   59.0630   38.4577 ns         1 CLA     -0.225500
      6 CBA        78.7230   58.7906   34.0072 a2         1 CLA     -0.135000
      7 CBB        76.7348   62.8995   44.8630 c0         1 CLA     -0.395200
      8 CBC        70.9520   56.6374   43.8405 a3         1 CLA     -0.037700
      9 CBD        75.0177   56.6463   35.9066 a1         1 CLA     -0.053900
     10 NB         76.5659   60.5637   40.9964 nm         1 CLA     -0.295700
     11 OBD        73.0805   55.1993   35.4355 o2         1 CLA     -0.494600
     12 CGA        79.3118   57.4265   33.6452 c4         1 CLA      0.827000
     13 CGD        76.0967   55.5151   35.6401 c4         1 CLA      0.655300
     14 ND         73.9810   57.9807   39.1679 nm         1 CLA     -0.291600
     15 CED        76.9588   53.4470   36.3905 a3         1 CLA      0.005400
     16 CHA        75.3780   57.6033   37.1220 cs         1 CLA     -0.123800
     17 CHB        78.3748   60.6895   39.2776 aa         1 CLA     -0.291900
     18 CHC        75.3152   60.6835   43.1401 aa         1 CLA     -0.090400
     19 CHD        72.1799   57.7864   40.7979 aa         1 CLA     -0.052000
     20 CMA        80.1442   58.9301   37.4346 a3         1 CLA     -0.230700
     21 CMB        79.7342   62.4557   41.4867 a3         1 CLA     -0.180800
     22 CMC        73.0132   60.0921   45.2963 a3         1 CLA     -0.134000
     23 CMD        71.1470   55.6595   38.7772 a3         1 CLA     -0.141100
     24 C1         80.3962   55.4209   34.3731 a2         1 CLA      0.023000
     25 C1A        76.5104   58.3513   37.3216 ac         1 CLA     -0.015100
     26 C1B        77.7658   61.0402   40.5296 cr         1 CLA      0.054700
     27 C1C        74.1315   59.9593   42.8918 cn         1 CLA     -0.005600
     28 C1D        72.7876   57.4304   39.5786 ap         1 CLA     -0.047300
     29 O1A        79.2473   56.9075   32.5554 o2         1 CLA     -0.610800
     30 O1D        76.8193   55.3785   34.6971 o2         1 CLA     -0.558200
     31 C2         80.9010   54.7076   35.5650 c8         1 CLA     -0.325100
     32 C2A        77.7505   58.3508   36.3614 a1         1 CLA      0.098600
     33 C2B        78.4138   61.8029   41.6163 cb         1 CLA      0.088500
     34 C2C        73.0690   59.6241   43.8628 cb         1 CLA      0.053700
     35 C2D        72.3504   56.5072   38.6076 cb         1 CLA      0.058900
     36 O2A        79.9612   56.7708   34.6785 o1         1 CLA     -0.437200
     37 O2D        76.1883   54.6634   36.7239 o1         1 CLA     -0.357600
     38 C3         82.2266   54.7673   35.9112 c5         1 CLA      0.031200
     39 C3A        78.6716   59.3152   37.1031 a1         1 CLA      0.166800
     40 C3B        77.5806   61.8117   42.7346 cb         1 CLA      0.035000
     41 C3C        72.1576   58.7961   43.1658 cb         1 CLA     -0.089900
     42 C3D        73.2968   56.5049   37.5477 cb         1 CLA     -0.035900
     43 C4         83.1004   53.5974   35.6727 a3         1 CLA     -0.053300
     44 C4A        77.8904   59.6808   38.3855 ac         1 CLA      0.001800
     45 C4B        76.3943   61.0320   42.3283 cn         1 CLA     -0.020900
     46 C4C        72.7300   58.5574   41.8450 cr         1 CLA     -0.044400
     47 C4D        74.3027   57.4074   37.9819 c6         1 CLA     -0.046000
     48 C5         82.6988   55.8388   36.9031 a2         1 CLA     -0.070400
     49 C6         83.6756   55.3119   37.9667 a2         1 CLA      0.043900
     50 C7         83.8511   56.3270   39.1850 a2         1 CLA     -0.150000
     51 C8         84.0437   57.8117   38.8915 a1         1 CLA      0.064200
     52 C9         85.2488   58.0611   38.0113 a3         1 CLA     -0.259300
     53 C10        84.1206   58.6548   40.2402 a2         1 CLA     -0.071900
     54 C11        82.7904   58.7156   40.9805 a2         1 CLA      0.014500
     55 C12        82.5328   59.8473   41.9721 a2         1 CLA     -0.112100
     56 C13        83.6101   60.1683   43.0829 a1         1 CLA      0.089200
     57 C14        83.8305   59.0015   44.1039 a3         1 CLA     -0.239100
     58 C15        83.1312   61.3890   43.9410 a2         1 CLA     -0.102200
     59 C16        84.2203   62.0366   44.8506 a2         1 CLA      0.023900
     60 C17        83.7222   63.3160   45.5927 a2         1 CLA     -0.105700
     61 C18        83.0622   63.0871   46.9782 a1         1 CLA      0.206800
     62 C19        83.2959   64.3292   47.9312 a3         1 CLA     -0.280100
     63 C20        81.6054   62.7181   47.0159 a3         1 CLA     -0.280100
     64 NC         73.8991   59.3146   41.7257 nx         1 CLA     -0.309200
     65 MG         75.2318   59.3312   40.0410 mg         1 CLA      0.895000
     66 HMD3       71.1130   54.9301   38.0145 dc         1 CLA      0.064300
     67 HMD2       71.2507   55.2347   39.7769 dc         1 CLA      0.064300
     68 HMD1       70.3127   56.3806   38.7692 dc         1 CLA      0.064300
     69 HMC3       71.9957   60.3723   45.3093 dc         1 CLA      0.052100
     70 HMC2       73.1910   59.3546   46.0914 dc         1 CLA      0.052100
     71 HMC1       73.6703   60.9238   45.3530 dc         1 CLA      0.052100
     72 HMB3       80.3454   61.7709   41.9504 dc         1 CLA      0.063600
     73 HMB2       79.9924   62.6996   40.4625 dc         1 CLA      0.063600
     74 HMB1       79.8812   63.3711   42.1153 dc         1 CLA      0.063600
     75 HMA3       80.2294   57.9459   37.9226 dc         1 CLA      0.058300
     76 HMA2       80.5495   58.7884   36.4696 dc         1 CLA      0.058300
     77 HMA1       80.5736   59.7042   38.0329 dc         1 CLA      0.058300
     78 HED3       76.3998   52.7464   35.7905 dc         1 CLA      0.079300
     79 HED2       77.8786   53.6946   35.8471 dc         1 CLA      0.079300
     80 HED1       77.2928   53.0019   37.2988 dc         1 CLA      0.079300
     81 HBC3       71.7791   56.3138   44.4110 dc         1 CLA      0.016300
     82 HBC2       70.0469   56.1515   44.2359 dc         1 CLA      0.016300
     83 HBC1       71.0164   56.2575   42.8324 dc         1 CLA      0.016300
     84 HBB2       76.9186   63.4536   45.7822 da         1 CLA      0.183000
     85 HBB1       75.6749   62.9147   44.4995 da         1 CLA      0.183000
     86 HBA2       78.4869   59.3522   33.0764 dc         1 CLA      0.029400
     87 HBA1       79.5475   59.3989   34.4419 dc         1 CLA      0.029400
     88 HAC2       70.8171   58.5786   44.7259 dc         1 CLA      0.029300
     89 HAC1       70.1240   58.5117   43.0819 dc         1 CLA      0.029300
     90 HAA2       76.7179   58.1303   34.3701 dc         1 CLA      0.028700
     91 HAA1       76.9515   59.7516   34.9516 dc         1 CLA      0.028700
     92 H203       81.3464   61.7697   46.6294 dc         1 CLA      0.065600
     93 H202       81.2108   62.8037   48.0377 dc         1 CLA      0.065600
     94 H201       81.1153   63.5379   46.5639 dc         1 CLA      0.065600
     95 H193       82.7522   64.2262   48.8637 dc         1 CLA      0.065600
     96 H192       84.3914   64.4698   48.1318 dc         1 CLA      0.065600
     97 H191       82.9092   65.1552   47.3427 dc         1 CLA      0.065600
     98 H172       84.6460   63.8153   45.7358 dc         1 CLA      0.027600
     99 H171       83.1154   63.9892   44.9283 dc         1 CLA      0.027600
    100 H162       84.6170   61.3345   45.5956 dc         1 CLA      0.002900
    101 H161       85.0454   62.3630   44.1951 dc         1 CLA      0.002900
    102 H152       82.8720   62.0834   43.1562 dc         1 CLA      0.029100
    103 H151       82.2428   61.1293   44.5769 dc         1 CLA      0.029100
    104 H143       84.1044   58.1206   43.5358 dc         1 CLA      0.063600
    105 H142       84.4523   59.1746   44.9498 dc         1 CLA      0.063600
    106 H141       82.8587   58.7725   44.5426 dc         1 CLA      0.063600
    107 H122       82.5543   60.7440   41.4025 dc         1 CLA      0.032500
    108 H121       81.5435   59.8692   42.3642 dc         1 CLA      0.032500
    109 H112       82.1076   58.9019   40.2176 dc         1 CLA      0.006600
    110 H111       82.6471   57.7586   41.5220 dc         1 CLA      0.006600
    111 H102       84.9060   58.2900   40.9337 dc         1 CLA      0.024100
    112 H101       84.4183   59.6877   39.9596 dc         1 CLA      0.024100
    113 HHD        71.2278   57.3036   40.9052 da         1 CLA      0.174300
    114 HHC        75.3052   60.9720   44.2104 da         1 CLA      0.136800
    115 HHB        79.2714   61.1774   38.9160 da         1 CLA      0.138300
    116 HBD        74.7780   57.1881   35.0095 dc         1 CLA      0.107700
    117 HAB        78.8255   62.5927   44.4332 da         1 CLA      0.155200
    118 H93        86.0409   57.3726   38.4167 dc         1 CLA      0.069500
    119 H92        84.8378   57.7179   37.0789 dc         1 CLA      0.069500
    120 H91        85.5756   59.0843   38.0502 dc         1 CLA      0.069500
    121 H8         83.1364   58.1498   38.4581 dc         1 CLA      0.029300
    122 H72        83.1023   56.2782   39.9601 dc         1 CLA      0.044400
    123 H71        84.7185   55.9553   39.6916 dc         1 CLA      0.044400
    124 H62        83.2310   54.4302   38.4055 dc         1 CLA      0.015600
    125 H61        84.6829   55.1930   37.4948 dc         1 CLA      0.015600
    126 H52        83.0917   56.6480   36.4867 dc         1 CLA      0.033200
    127 H51        81.8718   56.1416   37.5257 dc         1 CLA      0.033200
    128 H43        83.0518   52.9331   36.4869 dc         1 CLA      0.037000
    129 H42        82.7522   52.9754   34.8379 dc         1 CLA      0.037000
    130 H41        84.1349   53.8031   35.3957 dc         1 CLA      0.037000
    131 H3A        78.7743   60.1910   36.4417 dc         1 CLA      0.041100
    132 H2A        78.0840   57.3334   36.4037 dc         1 CLA      0.083100
    133 H2         80.1931   54.2425   36.2378 da         1 CLA      0.180900
    134 H18        83.5089   62.2005   47.4048 dc         1 CLA     -0.003900
    135 H13        84.5306   60.3871   42.5428 dc         1 CLA      0.019700
    136 H12        79.4263   54.9832   34.0026 dc         1 CLA      0.120400
    137 H11        81.1580   55.5123   33.6177 dc         1 CLA      0.120400
    138 C1         67.0723   61.7735   50.6383 Z1         2 LUT      0.509236
    139 C2         66.9820   62.8587   51.7006 Z2         2 LUT     -0.434695
    140 C3         65.6669   63.6571   51.8044 Z3         2 LUT      0.437453
    141 O3         66.0204   64.6981   52.7136 S1         2 LUT     -0.547129
    142 C4         65.4560   64.1201   50.3934 Z4         2 LUT     -0.468603
    143 C5         66.0867   63.4085   49.1957 Z5         2 LUT      0.279246
    144 C6         66.9411   62.3647   49.3106 Z6         2 LUT     -0.305473
    145 C7         67.7871   61.7645   48.2698 Z7         2 LUT      0.069402
    146 C8         68.4026   62.4607   47.2406 Z8         2 LUT     -0.191631
    147 C9         69.1041   62.0488   46.0522 Z9         2 LUT      0.196698
    148 C10        70.0632   62.8916   45.5029 Y1         2 LUT     -0.208611
    149 C11        70.7989   62.7776   44.2791 Y2         2 LUT      0.030784
    150 C12        71.7937   63.5840   43.9018 Y3         2 LUT     -0.220316
    151 C13        72.6714   63.5590   42.7138 Y4         2 LUT      0.215937
    152 C14        73.9309   64.1460   42.7152 Y5         2 LUT     -0.185793
    153 C15        75.0747   64.1833   41.8137 Y6         2 LUT     -0.057835
    154 C16        65.9417   60.6689   50.8275 Y7         2 LUT     -0.405615
    155 C17        68.3960   61.1298   50.9531 Y7         2 LUT     -0.405615
    156 C18        65.9089   64.3613   48.0277 Y9         2 LUT     -0.369639
    157 C19        68.8188   60.7629   45.4340 W1         2 LUT     -0.333362
    158 C20        72.1305   63.0649   41.4141 W2         2 LUT     -0.323439
    159 C21        86.0529   65.8210   35.6694 Z1         2 LUT      0.406104
    160 C22        86.8183   65.1723   34.4784 Z2         2 LUT     -0.404965
    161 C23        86.8834   66.0792   33.2735 Z3         2 LUT      0.391255
    162 O23        87.4747   65.4027   32.1618 S1         2 LUT     -0.528210
    163 C24        85.5825   66.8139   33.0237 W6         2 LUT     -0.258361
    164 C25        84.6275   66.9886   33.9063 Z5         2 LUT      0.133546
    165 C26        84.5980   66.1898   35.2320 W8         2 LUT     -0.147008
    166 C27        83.9457   66.9849   36.3502 Z7         2 LUT      0.023843
    167 C28        82.7397   66.6266   36.8703 Z8         2 LUT     -0.216987
    168 C29        82.2205   67.1020   38.1230 Z9         2 LUT      0.206524
    169 C30        81.1088   66.4626   38.5594 Y1         2 LUT     -0.215556
    170 C31        80.3164   66.5971   39.7819 Y2         2 LUT      0.025142
    171 C32        79.1636   65.8589   39.9456 Y3         2 LUT     -0.212209
    172 C33        78.3348   65.8999   41.0745 Y4         2 LUT      0.240937
    173 C34        77.1581   65.1144   40.9861 Y5         2 LUT     -0.218862
    174 C35        76.1643   65.0335   41.9849 Y6         2 LUT     -0.023547
    175 C36        87.0317   66.9196   36.2193 Y7         2 LUT     -0.393485
    176 C37        86.0015   64.7910   36.7470 Y7         2 LUT     -0.393485
    177 C38        83.4653   67.8852   33.6170 Y9         2 LUT     -0.387526
    178 C39        82.8617   68.2813   38.9171 W1         2 LUT     -0.322618
    179 C40        78.9164   66.4263   42.3755 W2         2 LUT     -0.358472
    180 H403       78.4469   66.0409   43.3260 R7         2 LUT      0.097720
    181 H402       79.9861   66.1690   42.4444 R7         2 LUT      0.097720
    182 H401       78.8587   67.4848   42.3288 R7         2 LUT      0.097720
    183 H393       83.2593   69.1010   38.2952 R4         2 LUT      0.082505
    184 H392       82.1235   68.8127   39.6043 R4         2 LUT      0.082505
    185 H391       83.7865   67.9105   39.4438 R4         2 LUT      0.082505
    186 H383       83.2758   67.8382   32.5128 R1         2 LUT      0.104030
    187 H382       82.5713   67.6455   34.1791 R1         2 LUT      0.104030
    188 H381       83.7035   68.9073   33.9699 R1         2 LUT      0.104030
    189 H373       86.9547   64.3592   36.9726 T4         2 LUT      0.089537
    190 H372       85.5561   65.1715   37.6208 T4         2 LUT      0.089537
    191 H371       85.3579   63.8550   36.5586 T4         2 LUT      0.089537
    192 H363       88.1020   66.8328   35.9465 T4         2 LUT      0.089537
    193 H362       86.6806   67.8603   35.7482 T4         2 LUT      0.089537
    194 H361       86.9114   67.0672   37.2660 T4         2 LUT      0.089537
    195 H222       87.7988   64.8870   34.8569 U2         2 LUT      0.127376
    196 H221       86.3102   64.1837   34.2202 U2         2 LUT      0.127376
    197 H203       72.6292   62.1331   41.2641 R7         2 LUT      0.087068
    198 H202       71.0579   63.0353   41.4195 R7         2 LUT      0.087068
    199 H201       72.6139   63.7433   40.5965 R7         2 LUT      0.087068
    200 H193       67.8476   60.9447   45.0253 R4         2 LUT      0.089716
    201 H192       69.3968   60.4718   44.4882 R4         2 LUT      0.089716
    202 H191       68.7590   59.8943   46.1569 R4         2 LUT      0.089716
    203 H183       66.6448   65.1882   48.2385 R1         2 LUT      0.094572
    204 H182       66.0792   63.8168   47.0827 R1         2 LUT      0.094572
    205 H181       64.9737   64.8565   48.0925 R1         2 LUT      0.094572
    206 H173       68.5667   60.8084   51.9943 T4         2 LUT      0.093752
    207 H172       68.5393   60.1682   50.3897 T4         2 LUT      0.093752
    208 H171       69.2541   61.7934   50.6702 T4         2 LUT      0.093752
    209 H163       66.1624   59.6682   50.4676 T4         2 LUT      0.093752
    210 H162       65.7828   60.6309   51.8870 T4         2 LUT      0.093752
    211 H161       65.0392   60.9154   50.2647 T4         2 LUT      0.093752
    212 HO3        65.2766   65.3284   52.8145 Q1         2 LUT      0.300121
    213 H8         68.1239   63.5405   47.2974 U7         2 LUT      0.080784
    214 H7         67.9964   60.6309   48.2224 U6         2 LUT      0.042190
    215 H42        64.4402   63.7945   50.2541 U5         2 LUT      0.145166
    216 H41        65.5708   65.2072   50.2514 U5         2 LUT      0.145166
    217 H35        76.3167   65.6906   42.8194 T3         2 LUT      0.077919
    218 H34        77.0469   64.5617   40.0670 T2         2 LUT      0.073626
    219 H32        78.7522   65.2321   39.1198 T1         2 LUT      0.092510
    220 H31        80.6530   67.3503   40.5423 U9         2 LUT      0.070048
    221 H30        80.7589   65.6230   38.0476 U8         2 LUT      0.085442
    222 H3         64.7746   63.0898   52.1273 U3         2 LUT     -0.031596
    223 H28        82.1629   65.8962   36.3902 U7         2 LUT      0.084728
    224 H27        84.5540   67.6691   36.9399 U6         2 LUT      0.087291
    225 H26        84.0887   65.3047   34.7878 Q6         2 LUT      0.075325
    226 H24        85.6326   67.4300   32.1361 Q5         2 LUT      0.094482
    227 H23        87.6760   66.7968   33.5964 U3         2 LUT     -0.024869
    228 H22        67.0817   62.3452   52.7642 U2         2 LUT      0.127376
    229 H21        67.8556   63.4799   51.5209 U2         2 LUT      0.127376
    230 H15        75.0972   63.6081   40.8903 T3         2 LUT      0.093200
    231 H14        74.0017   64.7055   43.6258 T2         2 LUT      0.068865
    232 H12        72.1497   64.2934   44.6390 T1         2 LUT      0.095507
    233 H11        70.6078   61.9542   43.5688 U9         2 LUT      0.068930
    234 H10        70.2847   63.8646   45.9843 U8         2 LUT      0.083911
    235 H1         86.8765   64.8073   31.7203 Q1         2 LUT      0.297311
@<TRIPOS>BOND
    1     6     1 1
    2     7     2 1
    3     8     3 1
    4     9     4 1
    5    11     4 1
    6    12     6 1
    7    13     9 1
    8    16     9 1
    9    25     5 1
   10    25    16 1
   11    26    10 1
   12    26    17 1
   13    27    18 1
   14    28    14 1
   15    28    19 1
   16    29    12 1
   17    30    13 1
   18    31    24 1
   19    32     1 1
   20    32    25 1
   21    33    21 1
   22    33    26 1
   23    34    22 1
   24    34    27 1
   25    35    23 1
   26    35    28 1
   27    36    12 1
   28    36    24 1
   29    37    13 1
   30    37    15 1
   31    38    31 1
   32    39    20 1
   33    39    32 1
   34    40     2 1
   35    40    33 1
   36    41     3 1
   37    41    34 1
   38    42     4 1
   39    42    35 1
   40    43    38 1
   41    44     5 1
   42    44    17 1
   43    44    39 1
   44    45    10 1
   45    45    18 1
   46    45    40 1
   47    46    19 1
   48    46    41 1
   49    47    14 1
   50    47    16 1
   51    47    42 1
   52    48    38 1
   53    49    48 1
   54    50    49 1
   55    51    50 1
   56    52    51 1
   57    53    51 1
   58    54    53 1
   59    55    54 1
   60    56    55 1
   61    57    56 1
   62    58    56 1
   63    59    58 1
   64    60    59 1
   65    61    60 1
   66    62    61 1
   67    63    61 1
   68    64    27 1
   69    64    46 1
   70    65     5 1
   71    65    10 1
   72    65    64 1
   73    65    14 1
   74    66    23 1
   75    67    23 1
   76    68    23 1
   77    69    22 1
   78    70    22 1
   79    71    22 1
   80    72    21 1
   81    73    21 1
   82    74    21 1
   83    75    20 1
   84    76    20 1
   85    77    20 1
   86    78    15 1
   87    79    15 1
   88    80    15 1
   89    81     8 1
   90    82     8 1
   91    83     8 1
   92    84     7 1
   93    85     7 1
   94    86     6 1
   95    87     6 1
   96    88     3 1
   97    89     3 1
   98    90     1 1
   99    91     1 1
  100    92    63 1
  101    93    63 1
  102    94    63 1
  103    95    62 1
  104    96    62 1
  105    97    62 1
  106    98    60 1
  107    99    60 1
  108   100    59 1
  109   101    59 1
  110   102    58 1
  111   103    58 1
  112   104    57 1
  113   105    57 1
  114   106    57 1
  115   107    55 1
  116   108    55 1
  117   109    54 1
  118   110    54 1
  119   111    53 1
  120   112    53 1
  121   113    19 1
  122   114    18 1
  123   115    17 1
  124   116     9 1
  125   117     2 1
  126   118    52 1
  127   119    52 1
  128   120    52 1
  129   121    51 1
  130   122    50 1
  131   123    50 1
  132   124    49 1
  133   125    49 1
  134   126    48 1
  135   127    48 1
  136   128    43 1
  137   129    43 1
  138   130    43 1
  139   131    39 1
  140   132    32 1
  141   133    31 1
  142   134    61 1
  143   135    56 1
  144   136    24 1
  145   137    24 1
  146   139   138 1
  147   140   139 1
  148   141   140 1
  149   142   140 1
  150   143   142 1
  151   144   138 1
  152   144   143 1
  153   145   144 1
  154   146   145 1
  155   147   146 1
  156   148   147 1
  157   149   148 1
  158   150   149 1
  159   151   150 1
  160   152   151 1
  161   153   152 1
  162   154   138 1
  163   155   138 1
  164   156   143 1
  165   157   147 1
  166   158   151 1
  167   160   159 1
  168   161   160 1
  169   162   161 1
  170   163   161 1
  171   164   163 1
  172   165   159 1
  173   165   164 1
  174   166   165 1
  175   167   166 1
  176   168   167 1
  177   169   168 1
  178   170   169 1
  179   171   170 1
  180   172   171 1
  181   173   172 1
  182   174   153 1
  183   174   173 1
  184   175   159 1
  185   176   159 1
  186   177   164 1
  187   178   168 1
  188   179   172 1
  189   180   179 1
  190   181   179 1
  191   182   179 1
  192   183   178 1
  193   184   178 1
  194   185   178 1
  195   186   177 1
  196   187   177 1
  197   188   177 1
  198   189   176 1
  199   190   176 1
  200   191   176 1
  201   192   175 1
  202   193   175 1
  203   194   175 1
  204   195   160 1
  205   196   160 1
  206   197   158 1
  207   198   158 1
  208   199   158 1
  209   200   157 1
  210   201   157 1
  211   202   157 1
  212   203   156 1
  213   204   156 1
  214   205   156 1
  215   206   155 1
  216   207   155 1
  217   208   155 1
  218   209   154 1
  219   210   154 1
  220   211   154 1
  221   212   141 1
  222   213   146 1
  223   214   145 1
  224   215   142 1
  225   216   142 1
  226   217   174 1
  227   218   173 1
  228   219   171 1
  229   220   170 1
  230   221   169 1
  231   222   140 1
  232   223   167 1
  233   224   166 1
  234   225   165 1
  235   226   163 1
  236   227   161 1
  237   228   139 1
  238   229   139 1
  239   230   153 1
  240   231   152 1
  241   232   150 1
  242   233   149 1
  243   234   148 1
  244   235   162 1
  245   65    153 1
  246   65    174 1
@<TRIPOS>SUBSTRUCTURE
      1 CLA               1 ****               0 ****  **** 
      2 LUT             138 ****               0 ****  **** 
