@<TRIPOS>MOLECULE
Cpptraj generated mol2 file.
  235   246     2     0     0
SMALL
USER_CHARGES


@<TRIPOS>ATOM
      1 CAA        79.8612   58.6942   34.7747 a2         1 CLA     -0.055900
      2 CAB        79.5779   61.7418   43.9560 c8         1 CLA     -0.148500
      3 CAC        72.5911   57.8424   43.0162 a2         1 CLA     -0.012600
      4 CAD        75.5242   55.8268   35.6673 ck         1 CLA      0.398800
      5 NA         78.5417   58.8147   38.1181 ns         1 CLA     -0.225500
      6 CBA        81.2549   58.5207   33.9740 a2         1 CLA     -0.135000
      7 CBB        80.6016   62.5208   44.4368 c0         1 CLA     -0.395200
      8 CBC        72.8443   56.2850   43.2425 a3         1 CLA     -0.037700
      9 CBD        77.0438   56.3509   35.4344 a1         1 CLA     -0.053900
     10 NB         78.3512   60.1627   40.8658 nm         1 CLA     -0.295700
     11 OBD        74.9155   55.0354   34.9529 o2         1 CLA     -0.494600
     12 CGA        81.7686   57.1658   33.5223 c4         1 CLA      0.827000
     13 CGD        77.9725   55.0932   35.5299 c4         1 CLA      0.655300
     14 ND         75.8247   57.7988   38.6230 nm         1 CLA     -0.291600
     15 CED        78.7484   53.4143   36.9443 a3         1 CLA      0.005400
     16 CHA        77.3123   57.3897   36.5579 cs         1 CLA     -0.123800
     17 CHB        80.2782   59.9660   39.3581 aa         1 CLA     -0.291900
     18 CHC        77.0218   60.2248   42.9369 aa         1 CLA     -0.090400
     19 CHD        73.9528   57.5471   40.1730 aa         1 CLA     -0.052000
     20 CMA        81.9130   58.0233   37.7465 a3         1 CLA     -0.230700
     21 CMB        81.8502   61.3774   41.6171 a3         1 CLA     -0.180800
     22 CMC        74.6271   59.5084   44.7403 a3         1 CLA     -0.134000
     23 CMD        72.8240   55.5670   38.0097 a3         1 CLA     -0.141100
     24 C1         82.5253   55.1000   34.3184 a2         1 CLA      0.023000
     25 C1A        78.4943   58.1131   36.9051 ac         1 CLA     -0.015100
     26 C1B        79.7025   60.3639   40.5647 cr         1 CLA      0.054700
     27 C1C        75.8658   59.5816   42.4835 cn         1 CLA     -0.005600
     28 C1D        74.5838   57.2868   38.9700 ap         1 CLA     -0.047300
     29 O1A        81.5354   56.6573   32.4215 o2         1 CLA     -0.610800
     30 O1D        78.9069   54.8739   34.7995 o2         1 CLA     -0.558200
     31 C2         83.0481   54.3650   35.5656 c8         1 CLA     -0.325100
     32 C2A        79.8179   58.0227   36.2094 a1         1 CLA      0.098600
     33 C2B        80.3935   61.0183   41.6555 cb         1 CLA      0.088500
     34 C2C        74.7307   59.2156   43.3194 cb         1 CLA      0.053700
     35 C2D        74.0984   56.3740   37.9715 cb         1 CLA      0.058900
     36 O2A        82.4281   56.5117   34.6268 o1         1 CLA     -0.437200
     37 O2D        77.6622   54.2930   36.6597 o1         1 CLA     -0.357600
     38 C3         84.0991   53.5259   35.6837 c5         1 CLA      0.031200
     39 C3A        80.7029   58.8192   37.2037 a1         1 CLA      0.166800
     40 C3B        79.4225   61.1855   42.6422 cb         1 CLA      0.035000
     41 C3C        73.8746   58.4434   42.5192 cb         1 CLA     -0.089900
     42 C3D        75.1341   56.4499   36.9274 cb         1 CLA     -0.035900
     43 C4         84.1074   51.9646   35.6889 a3         1 CLA     -0.053300
     44 C4A        79.7832   59.2286   38.3086 ac         1 CLA      0.001800
     45 C4B        78.1770   60.5452   42.1813 cn         1 CLA     -0.020900
     46 C4C        74.4808   58.3272   41.2351 cr         1 CLA     -0.044400
     47 C4D        76.1683   57.2940   37.4277 c6         1 CLA     -0.046000
     48 C5         85.3530   54.1087   36.2764 a2         1 CLA     -0.070400
     49 C6         85.1670   54.4406   37.7800 a2         1 CLA      0.043900
     50 C7         86.4187   54.8826   38.3921 a2         1 CLA     -0.150000
     51 C8         86.2438   55.6483   39.7682 a1         1 CLA      0.064200
     52 C9         85.5953   57.0891   39.6659 a3         1 CLA     -0.259300
     53 C10        87.6204   55.6686   40.4887 a2         1 CLA     -0.071900
     54 C11        87.7787   56.4475   41.7950 a2         1 CLA      0.014500
     55 C12        89.1702   56.4722   42.4171 a2         1 CLA     -0.112100
     56 C13        89.3356   57.4204   43.7296 a1         1 CLA      0.089200
     57 C14        90.7998   57.6006   44.1058 a3         1 CLA     -0.239100
     58 C15        88.6054   56.7489   44.9150 a2         1 CLA     -0.102200
     59 C16        87.4355   57.5716   45.5122 a2         1 CLA      0.023900
     60 C17        86.6826   56.6664   46.5837 a2         1 CLA     -0.105700
     61 C18        85.4091   57.1993   47.2468 a1         1 CLA      0.206800
     62 C19        84.1925   56.9568   46.3775 a3         1 CLA     -0.280100
     63 C20        85.1469   56.5943   48.6387 a3         1 CLA     -0.280100
     64 NC         75.6843   59.0321   41.2333 nx         1 CLA     -0.309200
     65 MG         76.9843   59.1163   39.6447 mg         1 CLA      0.895000
     66 HMD3       71.9224   56.0748   37.7485 dc         1 CLA      0.064300
     67 HMD2       72.8341   54.8693   37.2221 dc         1 CLA      0.064300
     68 HMD1       72.8358   55.2522   39.0151 dc         1 CLA      0.064300
     69 HMC3       73.6839   59.2581   45.2349 dc         1 CLA      0.052100
     70 HMC2       75.2790   58.7262   45.0554 dc         1 CLA      0.052100
     71 HMC1       74.9809   60.5330   45.0652 dc         1 CLA      0.052100
     72 HMB3       82.0816   62.4281   41.4933 dc         1 CLA      0.063600
     73 HMB2       82.3675   60.9843   42.4556 dc         1 CLA      0.063600
     74 HMB1       82.3654   60.9614   40.7927 dc         1 CLA      0.063600
     75 HMA3       82.4120   58.5548   38.5959 dc         1 CLA      0.058300
     76 HMA2       81.5795   57.1201   38.1652 dc         1 CLA      0.058300
     77 HMA1       82.5239   57.8356   36.8269 dc         1 CLA      0.058300
     78 HED3       78.4564   52.7343   37.7768 dc         1 CLA      0.079300
     79 HED2       78.9661   52.7765   36.0705 dc         1 CLA      0.079300
     80 HED1       79.6139   54.0001   37.2003 dc         1 CLA      0.079300
     81 HBC3       73.3067   55.8708   42.3526 dc         1 CLA      0.016300
     82 HBC2       73.4680   56.1498   44.1373 dc         1 CLA      0.016300
     83 HBC1       71.9554   55.7064   43.3398 dc         1 CLA      0.016300
     84 HBB2       80.6137   62.7580   45.5188 da         1 CLA      0.183000
     85 HBB1       81.4974   62.8174   43.9286 da         1 CLA      0.183000
     86 HBA2       81.1488   59.2064   33.0987 dc         1 CLA      0.029400
     87 HBA1       82.0441   58.9275   34.6402 dc         1 CLA      0.029400
     88 HAC2       72.1542   58.2454   43.9153 dc         1 CLA      0.029300
     89 HAC1       71.9189   57.9249   42.1687 dc         1 CLA      0.029300
     90 HAA2       79.0445   58.1989   34.2662 dc         1 CLA      0.028700
     91 HAA1       79.6649   59.7333   34.9326 dc         1 CLA      0.028700
     92 H203       84.9540   55.5213   48.6402 dc         1 CLA      0.065600
     93 H202       86.0525   56.7936   49.2519 dc         1 CLA      0.065600
     94 H201       84.2466   57.0832   49.1031 dc         1 CLA      0.065600
     95 H193       83.3310   57.2882   46.9556 dc         1 CLA      0.065600
     96 H192       84.3043   57.4426   45.3955 dc         1 CLA      0.065600
     97 H191       84.1026   55.9283   46.2850 dc         1 CLA      0.065600
     98 H172       86.4198   55.6731   46.2340 dc         1 CLA      0.027600
     99 H171       87.4097   56.5129   47.3864 dc         1 CLA      0.027600
    100 H162       87.8196   58.4310   45.9533 dc         1 CLA      0.002900
    101 H161       86.6829   57.7795   44.7755 dc         1 CLA      0.002900
    102 H152       88.3066   55.7105   44.8647 dc         1 CLA      0.029100
    103 H151       89.2615   56.7630   45.7653 dc         1 CLA      0.029100
    104 H143       91.1597   56.6387   44.4725 dc         1 CLA      0.063600
    105 H142       91.4570   57.8172   43.2627 dc         1 CLA      0.063600
    106 H141       90.9539   58.4346   44.8726 dc         1 CLA      0.063600
    107 H122       89.5023   55.4781   42.7324 dc         1 CLA      0.032500
    108 H121       89.7860   56.8503   41.6382 dc         1 CLA      0.032500
    109 H112       87.4593   57.5018   41.5937 dc         1 CLA      0.006600
    110 H111       87.1072   56.0954   42.5780 dc         1 CLA      0.006600
    111 H102       87.9946   54.6926   40.5914 dc         1 CLA      0.024100
    112 H101       88.3707   56.0036   39.7587 dc         1 CLA      0.024100
    113 HHD        72.9663   57.0864   40.3077 da         1 CLA      0.174300
    114 HHC        77.0065   60.7452   43.9451 da         1 CLA      0.136800
    115 HHB        81.2505   60.3740   39.1922 da         1 CLA      0.138300
    116 HBD        77.0765   56.8009   34.4321 dc         1 CLA      0.107700
    117 HAB        78.8401   61.5929   44.7651 da         1 CLA      0.155200
    118 H93        84.5699   57.0090   39.2314 dc         1 CLA      0.069500
    119 H92        85.4904   57.7679   40.5633 dc         1 CLA      0.069500
    120 H91        86.1937   57.6800   38.9849 dc         1 CLA      0.069500
    121 H8         85.4439   55.0594   40.2183 dc         1 CLA      0.029300
    122 H72        87.0954   54.0661   38.4929 dc         1 CLA      0.044400
    123 H71        86.9086   55.6021   37.7099 dc         1 CLA      0.044400
    124 H62        84.3309   55.0849   37.8437 dc         1 CLA      0.015600
    125 H61        84.7637   53.5793   38.3417 dc         1 CLA      0.015600
    126 H52        86.1672   53.4204   36.1781 dc         1 CLA      0.033200
    127 H51        85.6449   54.9237   35.6089 dc         1 CLA      0.033200
    128 H43        84.6936   51.7057   34.8028 dc         1 CLA      0.037000
    129 H42        84.5707   51.4610   36.5642 dc         1 CLA      0.037000
    130 H41        83.1140   51.5432   35.6726 dc         1 CLA      0.037000
    131 H3A        81.0315   59.6824   36.6726 dc         1 CLA      0.041100
    132 H2A        80.0668   56.9435   36.1844 dc         1 CLA      0.083100
    133 H2         82.4145   54.6430   36.4427 da         1 CLA      0.180900
    134 H18        85.5618   58.2251   47.4768 dc         1 CLA     -0.003900
    135 H13        89.0491   58.4073   43.4660 dc         1 CLA      0.019700
    136 H12        81.5141   54.6283   34.2196 dc         1 CLA      0.120400
    137 H11        83.2211   54.9827   33.5131 dc         1 CLA      0.120400
    138 C1         69.3232   61.1586   50.0183 Z1         2 LUT      0.509236
    139 C2         69.0575   61.9006   51.3229 Z2         2 LUT     -0.434695
    140 C3         67.6386   62.4611   51.3914 Z3         2 LUT      0.437453
    141 O3         67.3357   63.1337   52.5506 S1         2 LUT     -0.547129
    142 C4         67.4917   63.4917   50.2305 Z4         2 LUT     -0.468603
    143 C5         68.0118   63.0278   48.9481 Z5         2 LUT      0.279246
    144 C6         68.9233   62.0199   48.7977 Z6         2 LUT     -0.305473
    145 C7         69.5374   61.7027   47.5175 Z7         2 LUT      0.069402
    146 C8         70.3654   62.4705   46.8034 Z8         2 LUT     -0.191631
    147 C9         71.1108   61.9849   45.6532 Z9         2 LUT      0.196698
    148 C10        72.0661   62.8368   45.1991 Y1         2 LUT     -0.208611
    149 C11        72.8311   62.7661   43.9874 Y2         2 LUT      0.030784
    150 C12        74.0324   63.4618   43.7711 Y3         2 LUT     -0.220316
    151 C13        74.8595   63.4222   42.6144 Y4         2 LUT      0.215937
    152 C14        76.0258   64.1809   42.6051 Y5         2 LUT     -0.185793
    153 C15        77.1962   64.2142   41.7295 Y6         2 LUT     -0.057835
    154 C16        68.6040   59.7579   50.0153 Y7         2 LUT     -0.405615
    155 C17        70.7980   60.7748   49.9829 Y7         2 LUT     -0.405615
    156 C18        67.8346   64.1550   47.9573 Y9         2 LUT     -0.369639
    157 C19        70.5669   60.7971   44.8846 W1         2 LUT     -0.333362
    158 C20        74.4777   62.5805   41.4308 W2         2 LUT     -0.323439
    159 C21        88.7368   65.1533   36.1008 Z1         2 LUT      0.406104
    160 C22        89.4812   64.6478   34.7910 Z2         2 LUT     -0.404965
    161 C23        89.7454   65.6654   33.7415 Z3         2 LUT      0.391255
    162 O23        90.2793   65.0538   32.5546 S1         2 LUT     -0.528210
    163 C24        88.4556   66.4614   33.5231 W6         2 LUT     -0.258361
    164 C25        87.3459   66.4182   34.2503 Z5         2 LUT      0.133546
    165 C26        87.3515   65.6706   35.6317 W8         2 LUT     -0.147008
    166 C27        86.7143   66.5073   36.7796 Z7         2 LUT      0.023843
    167 C28        85.5464   66.0115   37.3926 Z8         2 LUT     -0.216987
    168 C29        85.0459   66.1925   38.8000 Z9         2 LUT      0.206524
    169 C30        83.7825   65.7477   39.1016 Y1         2 LUT     -0.215556
    170 C31        82.9354   65.8275   40.2513 Y2         2 LUT      0.025142
    171 C32        81.6732   65.3671   40.3005 Y3         2 LUT     -0.212209
    172 C33        80.7111   65.4739   41.4164 Y4         2 LUT      0.240937
    173 C34        79.4911   64.9287   41.2039 Y5         2 LUT     -0.218862
    174 C35        78.3050   64.8922   42.0150 Y6         2 LUT     -0.023547
    175 C36        89.5978   66.2788   36.7146 Y7         2 LUT     -0.393485
    176 C37        88.6970   64.0156   37.0449 Y7         2 LUT     -0.393485
    177 C38        86.0763   67.1368   33.8528 Y9         2 LUT     -0.387526
    178 C39        86.1371   66.6857   39.8015 W1         2 LUT     -0.322618
    179 C40        81.1234   65.9805   42.7794 W2         2 LUT     -0.358472
    180 H403       81.9927   66.6679   42.7371 R7         2 LUT      0.097720
    181 H402       80.3120   66.4362   43.3661 R7         2 LUT      0.097720
    182 H401       81.4609   65.0995   43.3937 R7         2 LUT      0.097720
    183 H393       85.8528   66.7356   40.8834 R4         2 LUT      0.082505
    184 H392       87.0274   66.0568   39.8778 R4         2 LUT      0.082505
    185 H391       86.4932   67.6929   39.6071 R4         2 LUT      0.082505
    186 H383       85.4334   66.2634   33.7582 R1         2 LUT      0.104030
    187 H382       85.4805   67.8248   34.5570 R1         2 LUT      0.104030
    188 H381       86.0517   67.5443   32.8396 R1         2 LUT      0.104030
    189 H373       89.6921   63.8016   37.4711 T4         2 LUT      0.089537
    190 H372       88.2247   64.4019   37.8856 T4         2 LUT      0.089537
    191 H371       88.1067   63.1130   36.7417 T4         2 LUT      0.089537
    192 H363       89.4860   67.1143   35.9682 T4         2 LUT      0.089537
    193 H362       89.3773   66.5985   37.7727 T4         2 LUT      0.089537
    194 H361       90.6945   65.9417   36.7748 T4         2 LUT      0.089537
    195 H222       90.3878   64.0958   35.1631 U2         2 LUT      0.127376
    196 H221       88.8915   63.8977   34.2529 U2         2 LUT      0.127376
    197 H203       74.2604   61.5117   41.7105 R7         2 LUT      0.087068
    198 H202       73.5518   62.9242   41.0522 R7         2 LUT      0.087068
    199 H201       75.0790   62.5532   40.5171 R7         2 LUT      0.087068
    200 H193       70.9819   60.7474   43.9089 R4         2 LUT      0.089716
    201 H192       70.7442   59.7943   45.3662 R4         2 LUT      0.089716
    202 H191       69.5157   60.9467   44.7699 R4         2 LUT      0.089716
    203 H183       66.8793   64.6840   48.1479 R1         2 LUT      0.094572
    204 H182       68.6217   64.8460   48.0955 R1         2 LUT      0.094572
    205 H181       67.8818   63.8257   46.9134 R1         2 LUT      0.094572
    206 H173       71.4598   61.6429   49.8719 T4         2 LUT      0.093752
    207 H172       71.2454   60.3509   50.8927 T4         2 LUT      0.093752
    208 H171       71.0397   60.0692   49.1847 T4         2 LUT      0.093752
    209 H163       68.8635   59.2459   49.0715 T4         2 LUT      0.093752
    210 H162       69.0876   59.1163   50.7565 T4         2 LUT      0.093752
    211 H161       67.5781   59.6005   50.2506 T4         2 LUT      0.093752
    212 HO3        67.0858   62.5673   53.2832 Q1         2 LUT      0.300121
    213 H8         70.5482   63.4410   47.1915 U7         2 LUT      0.080784
    214 H7         69.3834   60.7323   47.0420 U6         2 LUT      0.042190
    215 H42        66.4613   63.7923   50.1539 U5         2 LUT      0.145166
    216 H41        67.7608   64.5663   50.4641 U5         2 LUT      0.145166
    217 H35        78.2151   65.3530   42.9664 T3         2 LUT      0.077919
    218 H34        79.3904   64.3893   40.2011 T2         2 LUT      0.073626
    219 H32        81.3535   64.9397   39.4123 T1         2 LUT      0.092510
    220 H31        83.3851   66.3771   41.0649 U9         2 LUT      0.070048
    221 H30        83.2649   65.4318   38.2382 U8         2 LUT      0.085442
    222 H3         66.9337   61.6439   51.1357 U3         2 LUT     -0.031596
    223 H28        85.0378   65.1732   36.9494 U7         2 LUT      0.084728
    224 H27        87.3248   67.2005   37.3040 U6         2 LUT      0.087291
    225 H26        86.6896   64.7873   35.4888 Q6         2 LUT      0.075325
    226 H24        88.5757   67.1120   32.6646 Q5         2 LUT      0.094482
    227 H23        90.6462   66.3357   34.0961 U3         2 LUT     -0.024869
    228 H22        69.1379   61.3111   52.2667 U2         2 LUT      0.127376
    229 H21        69.7485   62.7066   51.3395 U2         2 LUT      0.127376
    230 H15        77.1597   63.7054   40.7967 T3         2 LUT      0.093200
    231 H14        76.1225   64.8041   43.5199 T2         2 LUT      0.068865
    232 H12        74.3748   64.1172   44.5712 T1         2 LUT      0.095507
    233 H11        72.4888   62.0821   43.2126 U9         2 LUT      0.068930
    234 H10        72.1990   63.7327   45.8439 U8         2 LUT      0.083911
    235 H1         89.6636   64.7338   31.8317 Q1         2 LUT      0.297311
@<TRIPOS>BOND
    1     6     1 1
    2     7     2 1
    3     8     3 1
    4     9     4 1
    5    11     4 1
    6    12     6 1
    7    13     9 1
    8    16     9 1
    9    25     5 1
   10    25    16 1
   11    26    10 1
   12    26    17 1
   13    27    18 1
   14    28    14 1
   15    28    19 1
   16    29    12 1
   17    30    13 1
   18    31    24 1
   19    32     1 1
   20    32    25 1
   21    33    21 1
   22    33    26 1
   23    34    22 1
   24    34    27 1
   25    35    23 1
   26    35    28 1
   27    36    12 1
   28    36    24 1
   29    37    13 1
   30    37    15 1
   31    38    31 1
   32    39    20 1
   33    39    32 1
   34    40     2 1
   35    40    33 1
   36    41     3 1
   37    41    34 1
   38    42     4 1
   39    42    35 1
   40    43    38 1
   41    44     5 1
   42    44    17 1
   43    44    39 1
   44    45    10 1
   45    45    18 1
   46    45    40 1
   47    46    19 1
   48    46    41 1
   49    47    14 1
   50    47    16 1
   51    47    42 1
   52    48    38 1
   53    49    48 1
   54    50    49 1
   55    51    50 1
   56    52    51 1
   57    53    51 1
   58    54    53 1
   59    55    54 1
   60    56    55 1
   61    57    56 1
   62    58    56 1
   63    59    58 1
   64    60    59 1
   65    61    60 1
   66    62    61 1
   67    63    61 1
   68    64    27 1
   69    64    46 1
   70    65     5 1
   71    65    10 1
   72    65    64 1
   73    65    14 1
   74    66    23 1
   75    67    23 1
   76    68    23 1
   77    69    22 1
   78    70    22 1
   79    71    22 1
   80    72    21 1
   81    73    21 1
   82    74    21 1
   83    75    20 1
   84    76    20 1
   85    77    20 1
   86    78    15 1
   87    79    15 1
   88    80    15 1
   89    81     8 1
   90    82     8 1
   91    83     8 1
   92    84     7 1
   93    85     7 1
   94    86     6 1
   95    87     6 1
   96    88     3 1
   97    89     3 1
   98    90     1 1
   99    91     1 1
  100    92    63 1
  101    93    63 1
  102    94    63 1
  103    95    62 1
  104    96    62 1
  105    97    62 1
  106    98    60 1
  107    99    60 1
  108   100    59 1
  109   101    59 1
  110   102    58 1
  111   103    58 1
  112   104    57 1
  113   105    57 1
  114   106    57 1
  115   107    55 1
  116   108    55 1
  117   109    54 1
  118   110    54 1
  119   111    53 1
  120   112    53 1
  121   113    19 1
  122   114    18 1
  123   115    17 1
  124   116     9 1
  125   117     2 1
  126   118    52 1
  127   119    52 1
  128   120    52 1
  129   121    51 1
  130   122    50 1
  131   123    50 1
  132   124    49 1
  133   125    49 1
  134   126    48 1
  135   127    48 1
  136   128    43 1
  137   129    43 1
  138   130    43 1
  139   131    39 1
  140   132    32 1
  141   133    31 1
  142   134    61 1
  143   135    56 1
  144   136    24 1
  145   137    24 1
  146   139   138 1
  147   140   139 1
  148   141   140 1
  149   142   140 1
  150   143   142 1
  151   144   138 1
  152   144   143 1
  153   145   144 1
  154   146   145 1
  155   147   146 1
  156   148   147 1
  157   149   148 1
  158   150   149 1
  159   151   150 1
  160   152   151 1
  161   153   152 1
  162   154   138 1
  163   155   138 1
  164   156   143 1
  165   157   147 1
  166   158   151 1
  167   160   159 1
  168   161   160 1
  169   162   161 1
  170   163   161 1
  171   164   163 1
  172   165   159 1
  173   165   164 1
  174   166   165 1
  175   167   166 1
  176   168   167 1
  177   169   168 1
  178   170   169 1
  179   171   170 1
  180   172   171 1
  181   173   172 1
  182   174   153 1
  183   174   173 1
  184   175   159 1
  185   176   159 1
  186   177   164 1
  187   178   168 1
  188   179   172 1
  189   180   179 1
  190   181   179 1
  191   182   179 1
  192   183   178 1
  193   184   178 1
  194   185   178 1
  195   186   177 1
  196   187   177 1
  197   188   177 1
  198   189   176 1
  199   190   176 1
  200   191   176 1
  201   192   175 1
  202   193   175 1
  203   194   175 1
  204   195   160 1
  205   196   160 1
  206   197   158 1
  207   198   158 1
  208   199   158 1
  209   200   157 1
  210   201   157 1
  211   202   157 1
  212   203   156 1
  213   204   156 1
  214   205   156 1
  215   206   155 1
  216   207   155 1
  217   208   155 1
  218   209   154 1
  219   210   154 1
  220   211   154 1
  221   212   141 1
  222   213   146 1
  223   214   145 1
  224   215   142 1
  225   216   142 1
  226   217   174 1
  227   218   173 1
  228   219   171 1
  229   220   170 1
  230   221   169 1
  231   222   140 1
  232   223   167 1
  233   224   166 1
  234   225   165 1
  235   226   163 1
  236   227   161 1
  237   228   139 1
  238   229   139 1
  239   230   153 1
  240   231   152 1
  241   232   150 1
  242   233   149 1
  243   234   148 1
  244   235   162 1
  245   65    153 1
  246   65    174 1
@<TRIPOS>SUBSTRUCTURE
      1 CLA               1 ****               0 ****  **** 
      2 LUT             138 ****               0 ****  **** 
