@<TRIPOS>MOLECULE
Cpptraj generated mol2 file.
  235   246     2     0     0
SMALL
USER_CHARGES


@<TRIPOS>ATOM
      1 CAA        79.6173   58.3970   34.2547 a2         1 CLA     -0.055900
      2 CAB        79.9961   61.8761   43.3676 c8         1 CLA     -0.148500
      3 CAC        72.7388   58.4629   42.6710 a2         1 CLA     -0.012600
      4 CAD        75.5603   55.8997   35.5214 ck         1 CLA      0.398800
      5 NA         78.6071   59.1231   37.5604 ns         1 CLA     -0.225500
      6 CBA        80.9247   58.1813   33.3345 a2         1 CLA     -0.135000
      7 CBB        81.1701   62.1521   43.9142 c0         1 CLA     -0.395200
      8 CBC        72.6318   56.8855   42.8905 a3         1 CLA     -0.037700
      9 CBD        77.0446   56.3553   35.3370 a1         1 CLA     -0.053900
     10 NB         78.6309   60.4222   40.1486 nm         1 CLA     -0.295700
     11 OBD        74.9119   55.1711   34.7638 o2         1 CLA     -0.494600
     12 CGA        81.2484   56.7368   33.0141 c4         1 CLA      0.827000
     13 CGD        77.9898   55.1592   35.4159 c4         1 CLA      0.655300
     14 ND         75.8389   58.1448   38.1952 nm         1 CLA     -0.291600
     15 CED        78.4004   53.2631   36.6156 a3         1 CLA      0.005400
     16 CHA        77.2888   57.4052   36.3675 cs         1 CLA     -0.123800
     17 CHB        80.4396   60.4373   38.5272 aa         1 CLA     -0.291900
     18 CHC        77.3771   60.6746   42.3412 aa         1 CLA     -0.090400
     19 CHD        74.1183   57.8951   39.9244 aa         1 CLA     -0.052000
     20 CMA        81.8020   57.8815   37.2887 a3         1 CLA     -0.230700
     21 CMB        82.0766   61.9717   40.6999 a3         1 CLA     -0.180800
     22 CMC        74.8075   60.2846   44.3727 a3         1 CLA     -0.134000
     23 CMD        72.8367   55.9229   37.7057 a3         1 CLA     -0.141100
     24 C1         82.3937   54.8452   34.0174 a2         1 CLA      0.023000
     25 C1A        78.4635   58.1715   36.5414 ac         1 CLA     -0.015100
     26 C1B        79.9070   60.6909   39.7877 cr         1 CLA      0.054700
     27 C1C        76.1755   59.8778   42.0945 cn         1 CLA     -0.005600
     28 C1D        74.7074   57.5226   38.6455 ap         1 CLA     -0.047300
     29 O1A        80.7839   55.9863   32.1821 o2         1 CLA     -0.610800
     30 O1D        78.7534   54.7269   34.5575 o2         1 CLA     -0.558200
     31 C2         82.9618   54.4956   35.3590 c8         1 CLA     -0.325100
     32 C2A        79.7635   58.0303   35.7324 a1         1 CLA      0.098600
     33 C2B        80.5966   61.4454   40.8157 cb         1 CLA      0.088500
     34 C2C        74.9960   59.7034   42.9841 cb         1 CLA      0.053700
     35 C2D        74.1332   56.6445   37.6351 cb         1 CLA      0.058900
     36 O2A        82.0483   56.2789   34.0920 o1         1 CLA     -0.437200
     37 O2D        77.8563   54.5612   36.6649 o1         1 CLA     -0.357600
     38 C3         84.2239   54.2290   35.6527 c5         1 CLA      0.031200
     39 C3A        80.7358   58.8802   36.6127 a1         1 CLA      0.166800
     40 C3B        79.7812   61.4121   41.9637 cb         1 CLA      0.035000
     41 C3C        74.1043   58.9253   42.2432 cb         1 CLA     -0.089900
     42 C3D        75.1590   56.5648   36.7506 cb         1 CLA     -0.035900
     43 C4         84.8850   52.9193   35.4899 a3         1 CLA     -0.053300
     44 C4A        79.8153   59.5295   37.6288 ac         1 CLA      0.001800
     45 C4B        78.4670   60.8689   41.4860 cn         1 CLA     -0.020900
     46 C4C        74.7077   58.6680   40.9589 cr         1 CLA     -0.044400
     47 C4D        76.1900   57.4685   37.1163 c6         1 CLA     -0.046000
     48 C5         85.1152   55.4266   35.8960 a2         1 CLA     -0.070400
     49 C6         85.7499   55.4563   37.3106 a2         1 CLA      0.043900
     50 C7         86.6215   56.7293   37.4977 a2         1 CLA     -0.150000
     51 C8         87.6344   56.7152   38.7369 a1         1 CLA      0.064200
     52 C9         88.7133   55.6154   38.6727 a3         1 CLA     -0.259300
     53 C10        86.9790   56.7116   40.1489 a2         1 CLA     -0.071900
     54 C11        87.6603   57.7261   41.1154 a2         1 CLA      0.014500
     55 C12        87.3287   57.4108   42.6220 a2         1 CLA     -0.112100
     56 C13        87.8971   58.3551   43.7557 a1         1 CLA      0.089200
     57 C14        89.3888   58.7639   43.4670 a3         1 CLA     -0.239100
     58 C15        87.6427   57.9839   45.1734 a2         1 CLA     -0.102200
     59 C16        87.7386   59.0745   46.2202 a2         1 CLA      0.023900
     60 C17        86.6282   60.0770   46.1361 a2         1 CLA     -0.105700
     61 C18        85.1847   59.4956   46.4267 a1         1 CLA      0.206800
     62 C19        85.0964   58.8254   47.8546 a3         1 CLA     -0.280100
     63 C20        84.1309   60.6386   46.3329 a3         1 CLA     -0.280100
     64 NC         75.9115   59.2979   40.8622 nx         1 CLA     -0.309200
     65 MG         77.1796   59.3564   39.1823 mg         1 CLA      0.895000
     66 HMD3       72.7515   55.2692   36.8507 dc         1 CLA      0.064300
     67 HMD2       72.7825   55.2518   38.5793 dc         1 CLA      0.064300
     68 HMD1       72.0391   56.6031   37.6935 dc         1 CLA      0.064300
     69 HMC3       75.7183   60.3772   44.9373 dc         1 CLA      0.052100
     70 HMC2       74.4843   61.3069   44.3621 dc         1 CLA      0.052100
     71 HMC1       74.1037   59.6497   44.9822 dc         1 CLA      0.052100
     72 HMB3       82.1436   62.9957   41.0681 dc         1 CLA      0.063600
     73 HMB2       82.8428   61.2584   41.1577 dc         1 CLA      0.063600
     74 HMB1       82.3961   62.0179   39.6982 dc         1 CLA      0.063600
     75 HMA3       82.4715   57.4986   36.5534 dc         1 CLA      0.058300
     76 HMA2       82.4294   58.3239   38.1073 dc         1 CLA      0.058300
     77 HMA1       81.2925   57.0865   37.7780 dc         1 CLA      0.058300
     78 HED3       79.4962   53.3019   36.4192 dc         1 CLA      0.079300
     79 HED2       78.2033   52.7879   37.5386 dc         1 CLA      0.079300
     80 HED1       77.9689   52.7166   35.7386 dc         1 CLA      0.079300
     81 HBC3       72.8967   56.6691   43.9682 dc         1 CLA      0.016300
     82 HBC2       71.6264   56.4699   42.8564 dc         1 CLA      0.016300
     83 HBC1       73.3897   56.4135   42.2139 dc         1 CLA      0.016300
     84 HBB2       81.2387   62.4863   44.9761 da         1 CLA      0.183000
     85 HBB1       82.0739   61.8943   43.3670 da         1 CLA      0.183000
     86 HBA2       80.8005   58.6586   32.4597 dc         1 CLA      0.029400
     87 HBA1       81.7860   58.7194   33.7692 dc         1 CLA      0.029400
     88 HAC2       72.3560   58.9730   43.5651 dc         1 CLA      0.029300
     89 HAC1       72.0783   58.7190   41.8588 dc         1 CLA      0.029300
     90 HAA2       78.8315   57.8811   33.7993 dc         1 CLA      0.028700
     91 HAA1       79.4116   59.4821   34.0274 dc         1 CLA      0.028700
     92 H203       84.1482   61.1103   45.3532 dc         1 CLA      0.065600
     93 H202       83.1654   60.1387   46.5419 dc         1 CLA      0.065600
     94 H201       84.3597   61.5195   46.9326 dc         1 CLA      0.065600
     95 H193       85.6211   57.9098   47.7814 dc         1 CLA      0.065600
     96 H192       85.5616   59.4799   48.6316 dc         1 CLA      0.065600
     97 H191       84.1140   58.4961   48.2689 dc         1 CLA      0.065600
     98 H172       86.9208   60.8322   46.9076 dc         1 CLA      0.027600
     99 H171       86.5309   60.5805   45.1569 dc         1 CLA      0.027600
    100 H162       87.7631   58.6415   47.2160 dc         1 CLA      0.002900
    101 H161       88.6320   59.7315   46.0889 dc         1 CLA      0.002900
    102 H152       86.7552   57.4547   45.3007 dc         1 CLA      0.029100
    103 H151       88.4488   57.3496   45.5317 dc         1 CLA      0.029100
    104 H143       90.1480   58.0045   43.4798 dc         1 CLA      0.063600
    105 H142       89.3866   59.2821   42.5464 dc         1 CLA      0.063600
    106 H141       89.7878   59.4876   44.1735 dc         1 CLA      0.063600
    107 H122       86.2172   57.5609   42.8050 dc         1 CLA      0.032500
    108 H121       87.7004   56.3837   42.8505 dc         1 CLA      0.032500
    109 H112       88.7950   57.6589   41.0089 dc         1 CLA      0.006600
    110 H111       87.2869   58.6585   40.8619 dc         1 CLA      0.006600
    111 H102       86.0053   57.1354   39.9974 dc         1 CLA      0.024100
    112 H101       86.9736   55.7393   40.5551 dc         1 CLA      0.024100
    113 HHD        73.3021   57.2276   40.2547 da         1 CLA      0.174300
    114 HHC        77.3612   60.9440   43.3712 da         1 CLA      0.136800
    115 HHB        81.4677   60.7027   38.3092 da         1 CLA      0.138300
    116 HBD        77.1028   56.8645   34.4137 dc         1 CLA      0.107700
    117 HAB        79.0951   61.9907   44.0067 da         1 CLA      0.155200
    118 H93        88.2107   54.6904   38.9811 dc         1 CLA      0.069500
    119 H92        89.0457   55.6413   37.6487 dc         1 CLA      0.069500
    120 H91        89.5310   55.7064   39.3643 dc         1 CLA      0.069500
    121 H8         88.2529   57.6394   38.6299 dc         1 CLA      0.029300
    122 H72        87.2289   56.8150   36.6320 dc         1 CLA      0.044400
    123 H71        85.9238   57.5618   37.5904 dc         1 CLA      0.044400
    124 H62        85.0866   55.6962   38.1483 dc         1 CLA      0.015600
    125 H61        86.4243   54.6018   37.4688 dc         1 CLA      0.015600
    126 H52        85.7903   55.5079   35.0695 dc         1 CLA      0.033200
    127 H51        84.4748   56.3478   35.8963 dc         1 CLA      0.033200
    128 H43        85.9485   52.9510   35.6433 dc         1 CLA      0.037000
    129 H42        84.4184   52.2564   36.2384 dc         1 CLA      0.037000
    130 H41        84.5660   52.5137   34.5154 dc         1 CLA      0.037000
    131 H3A        81.2353   59.6856   36.0609 dc         1 CLA      0.041100
    132 H2A        79.9328   56.9053   35.9166 dc         1 CLA      0.083100
    133 H2         82.2297   54.3841   36.1692 da         1 CLA      0.180900
    134 H18        84.9487   58.7847   45.6751 dc         1 CLA     -0.003900
    135 H13        87.3912   59.2998   43.6111 dc         1 CLA      0.019700
    136 H12        81.4829   54.2311   33.9753 dc         1 CLA      0.120400
    137 H11        83.0818   54.6087   33.2263 dc         1 CLA      0.120400
    138 C1         70.1458   62.7399   49.2596 Z1         2 LUT      0.509236
    139 C2         69.0426   62.3849   50.2069 Z2         2 LUT     -0.434695
    140 C3         68.0543   63.4839   50.6955 Z3         2 LUT      0.437453
    141 O3         68.3801   64.0719   51.9570 S1         2 LUT     -0.547129
    142 C4         68.1450   64.7220   49.7494 Z4         2 LUT     -0.468603
    143 C5         68.6596   64.4501   48.3317 Z5         2 LUT      0.279246
    144 C6         69.5235   63.3925   48.0466 Z6         2 LUT     -0.305473
    145 C7         69.8204   62.8043   46.7205 Z7         2 LUT      0.069402
    146 C8         70.8528   63.2317   45.9891 Z8         2 LUT     -0.191631
    147 C9         71.3007   62.8203   44.6935 Z9         2 LUT      0.196698
    148 C10        72.4475   63.4424   44.2684 Y1         2 LUT     -0.208611
    149 C11        73.2779   63.1243   43.1254 Y2         2 LUT      0.030784
    150 C12        74.4542   63.7147   42.9217 Y3         2 LUT     -0.220316
    151 C13        75.4325   63.5890   41.8435 Y4         2 LUT      0.215937
    152 C14        76.6785   64.1547   42.1335 Y5         2 LUT     -0.185793
    153 C15        77.8674   64.2578   41.2815 Y6         2 LUT     -0.057835
    154 C16        70.8318   61.3539   48.9513 Y7         2 LUT     -0.405615
    155 C17        71.1858   63.5678   50.0346 Y7         2 LUT     -0.405615
    156 C18        67.7176   65.0633   47.3233 Y9         2 LUT     -0.369639
    157 C19        70.6633   61.6887   43.9648 W1         2 LUT     -0.333362
    158 C20        74.9784   63.0720   40.4803 W2         2 LUT     -0.323439
    159 C21        88.9782   65.8623   35.3502 Z1         2 LUT      0.406104
    160 C22        89.6916   65.2017   34.1056 Z2         2 LUT     -0.404965
    161 C23        89.8719   66.1653   32.9149 Z3         2 LUT      0.391255
    162 O23        90.3504   65.2041   31.9579 S1         2 LUT     -0.528210
    163 C24        88.5521   66.8136   32.6581 W6         2 LUT     -0.258361
    164 C25        87.4540   66.6399   33.3861 Z5         2 LUT      0.133546
    165 C26        87.4782   66.1118   34.7955 W8         2 LUT     -0.147008
    166 C27        86.7205   66.9459   35.7562 Z7         2 LUT      0.023843
    167 C28        85.6479   66.5161   36.4934 Z8         2 LUT     -0.216987
    168 C29        85.1438   66.8679   37.7855 Z9         2 LUT      0.206524
    169 C30        84.0679   66.1481   38.2235 Y1         2 LUT     -0.215556
    170 C31        83.3561   66.2385   39.4711 Y2         2 LUT      0.025142
    171 C32        82.2173   65.6413   39.6818 Y3         2 LUT     -0.212209
    172 C33        81.2374   65.7905   40.7524 Y4         2 LUT      0.240937
    173 C34        80.0868   65.0507   40.6225 Y5         2 LUT     -0.218862
    174 C35        78.9834   64.9672   41.5429 Y6         2 LUT     -0.023547
    175 C36        89.7885   67.1382   35.7258 Y7         2 LUT     -0.393485
    176 C37        89.2079   64.8719   36.5262 Y7         2 LUT     -0.393485
    177 C38        86.1468   67.2865   32.8545 Y9         2 LUT     -0.387526
    178 C39        85.9623   67.9394   38.5694 W1         2 LUT     -0.322618
    179 C40        81.3449   66.8918   41.7804 W2         2 LUT     -0.358472
    180 H403       80.9482   67.7961   41.3672 R7         2 LUT      0.097720
    181 H402       80.7704   66.6073   42.6374 R7         2 LUT      0.097720
    182 H401       82.3333   67.1114   42.1302 R7         2 LUT      0.097720
    183 H393       85.6449   67.9921   39.5630 R4         2 LUT      0.082505
    184 H392       87.0119   67.7151   38.5527 R4         2 LUT      0.082505
    185 H391       85.7710   68.9698   38.3234 R4         2 LUT      0.082505
    186 H383       85.3883   66.5377   33.2302 R1         2 LUT      0.104030
    187 H382       85.8315   68.2748   33.2788 R1         2 LUT      0.104030
    188 H381       86.0258   67.4443   31.7526 R1         2 LUT      0.104030
    189 H373       90.3292   64.7563   36.5087 T4         2 LUT      0.089537
    190 H372       88.8918   65.1826   37.5526 T4         2 LUT      0.089537
    191 H371       88.6623   63.9394   36.3299 T4         2 LUT      0.089537
    192 H363       89.5088   67.5025   36.7207 T4         2 LUT      0.089537
    193 H362       90.8655   66.8015   35.7966 T4         2 LUT      0.089537
    194 H361       89.6271   67.9160   35.0207 T4         2 LUT      0.089537
    195 H222       90.6368   64.6242   34.3053 U2         2 LUT      0.127376
    196 H221       88.9345   64.4517   33.7949 U2         2 LUT      0.127376
    197 H203       75.9254   63.0412   39.8404 R7         2 LUT      0.087068
    198 H202       74.6380   62.0207   40.5005 R7         2 LUT      0.087068
    199 H201       74.2226   63.7655   40.0298 R7         2 LUT      0.087068
    200 H193       71.3162   60.8503   43.9275 R4         2 LUT      0.089716
    201 H192       69.9024   61.3365   44.5796 R4         2 LUT      0.089716
    202 H191       70.2250   62.0011   43.0247 R4         2 LUT      0.089716
    203 H183       67.9638   64.6980   46.3430 R1         2 LUT      0.094572
    204 H182       66.6760   64.9008   47.5484 R1         2 LUT      0.094572
    205 H181       67.9428   66.0928   47.2708 R1         2 LUT      0.094572
    206 H173       71.4300   62.9245   50.9383 T4         2 LUT      0.093752
    207 H172       72.1110   63.8760   49.5532 T4         2 LUT      0.093752
    208 H171       70.7491   64.4773   50.4118 T4         2 LUT      0.093752
    209 H163       71.6263   61.4654   48.1420 T4         2 LUT      0.093752
    210 H162       71.4076   60.9156   49.7806 T4         2 LUT      0.093752
    211 H161       70.1127   60.6559   48.6024 T4         2 LUT      0.093752
    212 HO3        67.8235   63.6605   52.6621 Q1         2 LUT      0.300121
    213 H8         71.4514   64.0625   46.4437 U7         2 LUT      0.080784
    214 H7         69.1885   61.9939   46.3821 U6         2 LUT      0.042190
    215 H42        67.1370   65.2301   49.5813 U5         2 LUT      0.145166
    216 H41        68.8381   65.5043   50.0825 U5         2 LUT      0.145166
    217 H35        78.9175   65.5133   42.5093 T3         2 LUT      0.077919
    218 H34        80.0108   64.3764   39.8242 T2         2 LUT      0.073626
    219 H32        81.8522   65.0498   38.8665 T1         2 LUT      0.092510
    220 H31        83.7989   66.9407   40.2121 U9         2 LUT      0.070048
    221 H30        83.7565   65.4076   37.4823 U8         2 LUT      0.085442
    222 H3         66.9923   62.9833   50.5265 U3         2 LUT     -0.031596
    223 H28        85.1363   65.6957   35.9772 U7         2 LUT      0.084728
    224 H27        87.2905   67.8621   36.1300 U6         2 LUT      0.087291
    225 H26        87.0182   65.1690   34.7580 Q6         2 LUT      0.075325
    226 H24        88.5310   67.4048   31.7616 Q5         2 LUT      0.094482
    227 H23        90.6586   66.8217   33.2305 U3         2 LUT     -0.024869
    228 H22        68.3058   61.6444   49.7034 U2         2 LUT      0.127376
    229 H21        69.3838   61.8934   51.1591 U2         2 LUT      0.127376
    230 H15        77.8308   63.6630   40.3583 T3         2 LUT      0.093200
    231 H14        76.8352   64.6352   43.1185 T2         2 LUT      0.068865
    232 H12        74.7911   64.2785   43.7962 T1         2 LUT      0.095507
    233 H11        72.8931   62.4466   42.3701 U9         2 LUT      0.068930
    234 H10        72.8984   64.1604   44.9230 U8         2 LUT      0.083911
    235 H1         90.5252   65.4785   31.0276 Q1         2 LUT      0.297311
@<TRIPOS>BOND
    1     6     1 1
    2     7     2 1
    3     8     3 1
    4     9     4 1
    5    11     4 1
    6    12     6 1
    7    13     9 1
    8    16     9 1
    9    25     5 1
   10    25    16 1
   11    26    10 1
   12    26    17 1
   13    27    18 1
   14    28    14 1
   15    28    19 1
   16    29    12 1
   17    30    13 1
   18    31    24 1
   19    32     1 1
   20    32    25 1
   21    33    21 1
   22    33    26 1
   23    34    22 1
   24    34    27 1
   25    35    23 1
   26    35    28 1
   27    36    12 1
   28    36    24 1
   29    37    13 1
   30    37    15 1
   31    38    31 1
   32    39    20 1
   33    39    32 1
   34    40     2 1
   35    40    33 1
   36    41     3 1
   37    41    34 1
   38    42     4 1
   39    42    35 1
   40    43    38 1
   41    44     5 1
   42    44    17 1
   43    44    39 1
   44    45    10 1
   45    45    18 1
   46    45    40 1
   47    46    19 1
   48    46    41 1
   49    47    14 1
   50    47    16 1
   51    47    42 1
   52    48    38 1
   53    49    48 1
   54    50    49 1
   55    51    50 1
   56    52    51 1
   57    53    51 1
   58    54    53 1
   59    55    54 1
   60    56    55 1
   61    57    56 1
   62    58    56 1
   63    59    58 1
   64    60    59 1
   65    61    60 1
   66    62    61 1
   67    63    61 1
   68    64    27 1
   69    64    46 1
   70    65     5 1
   71    65    10 1
   72    65    64 1
   73    65    14 1
   74    66    23 1
   75    67    23 1
   76    68    23 1
   77    69    22 1
   78    70    22 1
   79    71    22 1
   80    72    21 1
   81    73    21 1
   82    74    21 1
   83    75    20 1
   84    76    20 1
   85    77    20 1
   86    78    15 1
   87    79    15 1
   88    80    15 1
   89    81     8 1
   90    82     8 1
   91    83     8 1
   92    84     7 1
   93    85     7 1
   94    86     6 1
   95    87     6 1
   96    88     3 1
   97    89     3 1
   98    90     1 1
   99    91     1 1
  100    92    63 1
  101    93    63 1
  102    94    63 1
  103    95    62 1
  104    96    62 1
  105    97    62 1
  106    98    60 1
  107    99    60 1
  108   100    59 1
  109   101    59 1
  110   102    58 1
  111   103    58 1
  112   104    57 1
  113   105    57 1
  114   106    57 1
  115   107    55 1
  116   108    55 1
  117   109    54 1
  118   110    54 1
  119   111    53 1
  120   112    53 1
  121   113    19 1
  122   114    18 1
  123   115    17 1
  124   116     9 1
  125   117     2 1
  126   118    52 1
  127   119    52 1
  128   120    52 1
  129   121    51 1
  130   122    50 1
  131   123    50 1
  132   124    49 1
  133   125    49 1
  134   126    48 1
  135   127    48 1
  136   128    43 1
  137   129    43 1
  138   130    43 1
  139   131    39 1
  140   132    32 1
  141   133    31 1
  142   134    61 1
  143   135    56 1
  144   136    24 1
  145   137    24 1
  146   139   138 1
  147   140   139 1
  148   141   140 1
  149   142   140 1
  150   143   142 1
  151   144   138 1
  152   144   143 1
  153   145   144 1
  154   146   145 1
  155   147   146 1
  156   148   147 1
  157   149   148 1
  158   150   149 1
  159   151   150 1
  160   152   151 1
  161   153   152 1
  162   154   138 1
  163   155   138 1
  164   156   143 1
  165   157   147 1
  166   158   151 1
  167   160   159 1
  168   161   160 1
  169   162   161 1
  170   163   161 1
  171   164   163 1
  172   165   159 1
  173   165   164 1
  174   166   165 1
  175   167   166 1
  176   168   167 1
  177   169   168 1
  178   170   169 1
  179   171   170 1
  180   172   171 1
  181   173   172 1
  182   174   153 1
  183   174   173 1
  184   175   159 1
  185   176   159 1
  186   177   164 1
  187   178   168 1
  188   179   172 1
  189   180   179 1
  190   181   179 1
  191   182   179 1
  192   183   178 1
  193   184   178 1
  194   185   178 1
  195   186   177 1
  196   187   177 1
  197   188   177 1
  198   189   176 1
  199   190   176 1
  200   191   176 1
  201   192   175 1
  202   193   175 1
  203   194   175 1
  204   195   160 1
  205   196   160 1
  206   197   158 1
  207   198   158 1
  208   199   158 1
  209   200   157 1
  210   201   157 1
  211   202   157 1
  212   203   156 1
  213   204   156 1
  214   205   156 1
  215   206   155 1
  216   207   155 1
  217   208   155 1
  218   209   154 1
  219   210   154 1
  220   211   154 1
  221   212   141 1
  222   213   146 1
  223   214   145 1
  224   215   142 1
  225   216   142 1
  226   217   174 1
  227   218   173 1
  228   219   171 1
  229   220   170 1
  230   221   169 1
  231   222   140 1
  232   223   167 1
  233   224   166 1
  234   225   165 1
  235   226   163 1
  236   227   161 1
  237   228   139 1
  238   229   139 1
  239   230   153 1
  240   231   152 1
  241   232   150 1
  242   233   149 1
  243   234   148 1
  244   235   162 1
  245   65    153 1
  246   65    174 1
@<TRIPOS>SUBSTRUCTURE
      1 CLA               1 ****               0 ****  **** 
      2 LUT             138 ****               0 ****  **** 
