@<TRIPOS>MOLECULE
Cpptraj generated mol2 file.
  235   246     2     0     0
SMALL
USER_CHARGES


@<TRIPOS>ATOM
      1 CAA        78.2644   58.9607   33.7066 a2         1 CLA     -0.055900
      2 CAB        78.5528   62.2452   42.8735 c8         1 CLA     -0.148500
      3 CAC        71.6731   58.0989   42.4561 a2         1 CLA     -0.012600
      4 CAD        74.2170   56.1518   34.9549 ck         1 CLA      0.398800
      5 NA         77.3760   59.1770   37.1768 ns         1 CLA     -0.225500
      6 CBA        79.4582   58.8291   32.8048 a2         1 CLA     -0.135000
      7 CBB        79.6610   62.3064   43.6832 c0         1 CLA     -0.395200
      8 CBC        71.9786   56.6531   42.7416 a3         1 CLA     -0.037700
      9 CBD        75.6049   56.8233   34.6029 a1         1 CLA     -0.053900
     10 NB         77.3546   60.5627   39.8918 nm         1 CLA     -0.295700
     11 OBD        73.5917   55.4333   34.2171 o2         1 CLA     -0.494600
     12 CGA        80.0151   57.4525   32.4224 c4         1 CLA      0.827000
     13 CGD        76.6212   55.7396   34.1829 c4         1 CLA      0.655300
     14 ND         74.8014   57.9761   37.9607 nm         1 CLA     -0.291600
     15 CED        77.4093   53.4488   34.5387 a3         1 CLA      0.005400
     16 CHA        76.0290   57.6761   35.8197 cs         1 CLA     -0.123800
     17 CHB        79.1379   60.4241   38.1508 aa         1 CLA     -0.291900
     18 CHC        76.1322   60.7138   41.9961 aa         1 CLA     -0.090400
     19 CHD        73.0425   57.7073   39.6220 aa         1 CLA     -0.052000
     20 CMA        80.6142   58.2388   36.5010 a3         1 CLA     -0.230700
     21 CMB        80.6879   62.1672   40.3167 a3         1 CLA     -0.180800
     22 CMC        73.7647   60.3637   43.9734 a3         1 CLA     -0.134000
     23 CMD        71.8944   55.6156   37.6219 a3         1 CLA     -0.141100
     24 C1         81.0202   55.4399   33.2771 a2         1 CLA      0.023000
     25 C1A        77.2355   58.3738   36.0494 ac         1 CLA     -0.015100
     26 C1B        78.6160   60.8369   39.4235 cr         1 CLA      0.054700
     27 C1C        74.9478   59.9978   41.7067 cn         1 CLA     -0.005600
     28 C1D        73.5678   57.4615   38.3135 ap         1 CLA     -0.047300
     29 O1A        79.7725   56.7854   31.4231 o2         1 CLA     -0.610800
     30 O1D        77.4632   55.8285   33.2866 o2         1 CLA     -0.558200
     31 C2         81.8116   54.9225   34.4422 c8         1 CLA     -0.325100
     32 C2A        78.4744   58.3523   35.1146 a1         1 CLA      0.098600
     33 C2B        79.3200   61.6406   40.3907 cb         1 CLA      0.088500
     34 C2C        73.8704   59.7610   42.6460 cb         1 CLA      0.053700
     35 C2D        73.0420   56.5187   37.3021 cb         1 CLA      0.058900
     36 O2A        80.7368   56.8771   33.4735 o1         1 CLA     -0.437200
     37 O2D        76.6235   54.6225   35.0084 o1         1 CLA     -0.357600
     38 C3         82.7537   53.9621   34.2741 c5         1 CLA      0.031200
     39 C3A        79.5435   59.2089   35.9773 a1         1 CLA      0.166800
     40 C3B        78.3991   61.7604   41.5259 cb         1 CLA      0.035000
     41 C3C        72.9789   58.7934   41.9688 cb         1 CLA     -0.089900
     42 C3D        73.9365   56.7148   36.2585 cb         1 CLA     -0.035900
     43 C4         82.4580   52.4728   34.5567 a3         1 CLA     -0.053300
     44 C4A        78.6540   59.6646   37.1607 ac         1 CLA      0.001800
     45 C4B        77.2354   60.9627   41.1787 cn         1 CLA     -0.020900
     46 C4C        73.5416   58.5639   40.6375 cr         1 CLA     -0.044400
     47 C4D        74.9706   57.5347   36.7035 c6         1 CLA     -0.046000
     48 C5         84.2419   54.3354   33.8714 a2         1 CLA     -0.070400
     49 C6         84.7781   55.5895   34.3018 a2         1 CLA      0.043900
     50 C7         84.9115   55.6131   35.8457 a2         1 CLA     -0.150000
     51 C8         85.3803   56.9721   36.4210 a1         1 CLA      0.064200
     52 C9         86.7402   57.4366   35.8493 a3         1 CLA     -0.259300
     53 C10        85.4138   56.9220   38.0683 a2         1 CLA     -0.071900
     54 C11        84.0692   56.7892   38.7594 a2         1 CLA      0.014500
     55 C12        84.2834   57.0773   40.2141 a2         1 CLA     -0.112100
     56 C13        82.9635   56.9921   41.1100 a1         1 CLA      0.089200
     57 C14        82.0310   58.1220   40.8099 a3         1 CLA     -0.239100
     58 C15        83.2434   56.8927   42.6507 a2         1 CLA     -0.102200
     59 C16        83.4119   58.1129   43.4521 a2         1 CLA      0.023900
     60 C17        84.6679   58.9669   42.9754 a2         1 CLA     -0.105700
     61 C18        85.0561   60.2256   43.8166 a1         1 CLA      0.206800
     62 C19        83.7968   61.1177   43.9463 a3         1 CLA     -0.280100
     63 C20        85.5889   59.9206   45.2271 a3         1 CLA     -0.280100
     64 NC         74.7097   59.3825   40.5189 nx         1 CLA     -0.309200
     65 MG         75.9493   59.3785   38.7771 mg         1 CLA      0.895000
     66 HMD3       72.0586   54.9519   38.4809 dc         1 CLA      0.064300
     67 HMD2       70.9166   56.1439   37.6679 dc         1 CLA      0.064300
     68 HMD1       71.8278   54.9430   36.8085 dc         1 CLA      0.064300
     69 HMC3       73.7958   59.6095   44.7346 dc         1 CLA      0.052100
     70 HMC2       74.5453   61.0630   44.1635 dc         1 CLA      0.052100
     71 HMC1       72.7911   60.8435   44.1349 dc         1 CLA      0.052100
     72 HMB3       81.2402   61.4597   40.8805 dc         1 CLA      0.063600
     73 HMB2       81.0436   62.3504   39.2604 dc         1 CLA      0.063600
     74 HMB1       80.7664   63.1244   40.8627 dc         1 CLA      0.063600
     75 HMA3       81.2800   58.6750   37.2490 dc         1 CLA      0.058300
     76 HMA2       80.1672   57.4188   37.0954 dc         1 CLA      0.058300
     77 HMA1       81.2001   57.8725   35.6555 dc         1 CLA      0.058300
     78 HED3       78.4400   53.7493   34.3188 dc         1 CLA      0.079300
     79 HED2       77.3700   52.7590   35.3644 dc         1 CLA      0.079300
     80 HED1       76.8682   53.1234   33.5628 dc         1 CLA      0.079300
     81 HBC3       72.0428   56.1153   41.7492 dc         1 CLA      0.016300
     82 HBC2       72.9075   56.5387   43.2538 dc         1 CLA      0.016300
     83 HBC1       71.2389   56.2700   43.3829 dc         1 CLA      0.016300
     84 HBB2       79.6864   62.7957   44.6882 da         1 CLA      0.183000
     85 HBB1       80.6133   61.8278   43.3747 da         1 CLA      0.183000
     86 HBA2       79.2085   59.2708   31.7767 dc         1 CLA      0.029400
     87 HBA1       80.2522   59.5132   33.1393 dc         1 CLA      0.029400
     88 HAC2       71.4748   58.5557   43.4235 dc         1 CLA      0.029300
     89 HAC1       70.9159   58.2773   41.7038 dc         1 CLA      0.029300
     90 HAA2       77.3157   58.5532   33.2484 dc         1 CLA      0.028700
     91 HAA1       78.0595   60.0599   33.7817 dc         1 CLA      0.028700
     92 H203       84.9271   59.2158   45.7423 dc         1 CLA      0.065600
     93 H202       86.5283   59.3613   45.1243 dc         1 CLA      0.065600
     94 H201       85.5662   60.7718   45.8558 dc         1 CLA      0.065600
     95 H193       83.4349   61.3694   42.9162 dc         1 CLA      0.065600
     96 H192       83.0494   60.6327   44.5398 dc         1 CLA      0.065600
     97 H191       84.0081   62.0078   44.5276 dc         1 CLA      0.065600
     98 H172       85.5131   58.3716   42.9792 dc         1 CLA      0.027600
     99 H171       84.5462   59.3726   41.9833 dc         1 CLA      0.027600
    100 H162       82.4565   58.6440   43.6570 dc         1 CLA      0.002900
    101 H161       83.6570   57.7311   44.4070 dc         1 CLA      0.002900
    102 H152       82.4318   56.3445   43.1191 dc         1 CLA      0.029100
    103 H151       84.0906   56.2592   42.8851 dc         1 CLA      0.029100
    104 H143       81.1500   58.0907   41.4072 dc         1 CLA      0.063600
    105 H142       82.4637   59.1183   40.9269 dc         1 CLA      0.063600
    106 H141       81.6673   58.1448   39.7754 dc         1 CLA      0.063600
    107 H122       84.9359   56.2607   40.4966 dc         1 CLA      0.032500
    108 H121       84.9136   57.9548   40.3811 dc         1 CLA      0.032500
    109 H112       83.5063   57.5789   38.3133 dc         1 CLA      0.006600
    110 H111       83.5720   55.8788   38.6603 dc         1 CLA      0.006600
    111 H102       86.2138   56.2522   38.3019 dc         1 CLA      0.024100
    112 H101       85.8464   57.8984   38.3984 dc         1 CLA      0.024100
    113 HHD        72.0830   57.1944   39.7968 da         1 CLA      0.174300
    114 HHC        76.1796   61.2457   42.9306 da         1 CLA      0.136800
    115 HHB        80.1374   60.7829   37.8678 da         1 CLA      0.138300
    116 HBD        75.5255   57.4852   33.7250 dc         1 CLA      0.107700
    117 HAB        77.6467   62.7057   43.2216 da         1 CLA      0.155200
    118 H93        86.6502   57.6583   34.8088 dc         1 CLA      0.069500
    119 H92        86.9277   58.4136   36.2841 dc         1 CLA      0.069500
    120 H91        87.5065   56.7485   36.1688 dc         1 CLA      0.069500
    121 H8         84.6549   57.7452   36.0984 dc         1 CLA      0.029300
    122 H72        84.0367   55.2647   36.4299 dc         1 CLA      0.044400
    123 H71        85.6837   54.8372   35.9506 dc         1 CLA      0.044400
    124 H62        85.8307   55.6671   33.9664 dc         1 CLA      0.015600
    125 H61        84.2182   56.4541   34.0140 dc         1 CLA      0.015600
    126 H52        84.8418   53.4624   34.2259 dc         1 CLA      0.033200
    127 H51        84.2456   54.3430   32.8411 dc         1 CLA      0.033200
    128 H43        82.5032   51.8487   33.6588 dc         1 CLA      0.037000
    129 H42        83.1639   52.1052   35.2553 dc         1 CLA      0.037000
    130 H41        81.3831   52.4465   34.9041 dc         1 CLA      0.037000
    131 H3A        79.8855   60.0825   35.4917 dc         1 CLA      0.041100
    132 H2A        78.7569   57.3189   34.9907 dc         1 CLA      0.083100
    133 H2         81.7427   55.3793   35.4194 da         1 CLA      0.180900
    134 H18        85.7713   60.8214   43.1482 dc         1 CLA     -0.003900
    135 H13        82.3691   56.0512   40.7941 dc         1 CLA      0.019700
    136 H12        80.0716   54.9333   33.1918 dc         1 CLA      0.120400
    137 H11        81.6003   55.2444   32.3707 dc         1 CLA      0.120400
    138 C1         68.3740   60.4032   49.4073 Z1         2 LUT      0.509236
    139 C2         68.3982   61.2654   50.6690 Z2         2 LUT     -0.434695
    140 C3         67.0049   61.9243   50.9286 Z3         2 LUT      0.437453
    141 O3         67.1757   62.8183   52.0870 S1         2 LUT     -0.547129
    142 C4         66.5152   62.5829   49.7550 Z4         2 LUT     -0.468603
    143 C5         67.0803   62.2467   48.3980 Z5         2 LUT      0.279246
    144 C6         67.8966   61.2186   48.1417 Z6         2 LUT     -0.305473
    145 C7         68.6227   61.0396   46.8896 Z7         2 LUT      0.069402
    146 C8         69.1884   62.0713   46.1552 Z8         2 LUT     -0.191631
    147 C9         69.8234   62.0345   44.8572 Z9         2 LUT      0.196698
    148 C10        70.8024   62.9778   44.4999 Y1         2 LUT     -0.208611
    149 C11        71.5600   62.9627   43.3071 Y2         2 LUT      0.030784
    150 C12        72.7334   63.6056   43.1813 Y3         2 LUT     -0.220316
    151 C13        73.7374   63.5355   42.0667 Y4         2 LUT      0.215937
    152 C14        74.9530   64.1626   42.1995 Y5         2 LUT     -0.185793
    153 C15        76.0053   64.2506   41.2115 Y6         2 LUT     -0.057835
    154 C16        67.3708   59.2637   49.7078 Y7         2 LUT     -0.405615
    155 C17        69.8113   59.6919   49.3032 Y7         2 LUT     -0.405615
    156 C18        66.5970   63.2244   47.3386 Y9         2 LUT     -0.369639
    157 C19        69.4066   60.9166   44.0023 W1         2 LUT     -0.333362
    158 C20        73.2774   62.9500   40.7523 W2         2 LUT     -0.323439
    159 C21        87.2545   65.8949   34.6171 Z1         2 LUT      0.406104
    160 C22        87.8541   65.3234   33.2799 Z2         2 LUT     -0.404965
    161 C23        87.9776   66.4217   32.1626 Z3         2 LUT      0.391255
    162 O23        88.6258   65.8456   31.0109 S1         2 LUT     -0.528210
    163 C24        86.6957   67.1570   32.0383 W6         2 LUT     -0.258361
    164 C25        85.7440   67.1619   32.9042 Z5         2 LUT      0.133546
    165 C26        85.7782   66.3935   34.3418 W8         2 LUT     -0.147008
    166 C27        85.0687   67.1448   35.4390 Z7         2 LUT      0.023843
    167 C28        83.9467   66.6911   36.0922 Z8         2 LUT     -0.216987
    168 C29        83.2963   67.1895   37.3235 Z9         2 LUT      0.206524
    169 C30        82.1575   66.5430   37.8057 Y1         2 LUT     -0.215556
    170 C31        81.3656   66.8069   39.0305 Y2         2 LUT      0.025142
    171 C32        80.2658   65.9935   39.3493 Y3         2 LUT     -0.212209
    172 C33        79.3356   65.9766   40.4602 Y4         2 LUT      0.240937
    173 C34        78.2283   65.1860   40.4033 Y5         2 LUT     -0.218862
    174 C35        77.1482   65.0463   41.3002 Y6         2 LUT     -0.023547
    175 C36        88.2705   66.9553   35.1840 Y7         2 LUT     -0.393485
    176 C37        87.1285   64.6729   35.6361 Y7         2 LUT     -0.393485
    177 C38        84.4367   67.9074   32.5345 Y9         2 LUT     -0.387526
    178 C39        83.9787   68.3423   38.0392 W1         2 LUT     -0.322618
    179 C40        79.4855   66.9384   41.5942 W2         2 LUT     -0.358472
    180 H403       80.5392   67.0487   41.9211 R7         2 LUT      0.097720
    181 H402       79.0759   67.8987   41.2773 R7         2 LUT      0.097720
    182 H401       78.8974   66.7219   42.4084 R7         2 LUT      0.097720
    183 H393       85.0545   68.2801   38.0774 R4         2 LUT      0.082505
    184 H392       83.7411   69.3098   37.6343 R4         2 LUT      0.082505
    185 H391       83.7366   68.3596   39.0905 R4         2 LUT      0.082505
    186 H383       84.5719   68.4564   31.6011 R1         2 LUT      0.104030
    187 H382       83.5592   67.2590   32.4877 R1         2 LUT      0.104030
    188 H381       84.2686   68.5852   33.3752 R1         2 LUT      0.104030
    189 H373       86.5522   63.8423   35.2597 T4         2 LUT      0.089537
    190 H372       88.1460   64.1695   35.8091 T4         2 LUT      0.089537
    191 H371       86.7959   64.9516   36.6073 T4         2 LUT      0.089537
    192 H363       88.2764   67.9313   34.6608 T4         2 LUT      0.089537
    193 H362       87.8985   67.2056   36.2094 T4         2 LUT      0.089537
    194 H361       89.3578   66.7279   35.2279 T4         2 LUT      0.089537
    195 H222       88.8909   65.0752   33.4736 U2         2 LUT      0.127376
    196 H221       87.2694   64.5429   32.8596 U2         2 LUT      0.127376
    197 H203       73.5387   61.9103   40.6240 R7         2 LUT      0.087068
    198 H202       72.1613   63.0274   40.6465 R7         2 LUT      0.087068
    199 H201       73.7367   63.4272   39.9251 R7         2 LUT      0.087068
    200 H193       70.1090   60.6220   43.2476 R4         2 LUT      0.089716
    201 H192       69.1544   59.9709   44.5746 R4         2 LUT      0.089716
    202 H191       68.5239   61.2692   43.4071 R4         2 LUT      0.089716
    203 H183       66.6379   62.8010   46.3464 R1         2 LUT      0.094572
    204 H182       65.5552   63.4703   47.5634 R1         2 LUT      0.094572
    205 H181       67.0574   64.2369   47.3749 R1         2 LUT      0.094572
    206 H173       70.1344   59.3357   50.2782 T4         2 LUT      0.093752
    207 H172       69.7274   58.7414   48.7192 T4         2 LUT      0.093752
    208 H171       70.6564   60.4008   49.0390 T4         2 LUT      0.093752
    209 H163       67.6330   58.7658   50.6726 T4         2 LUT      0.093752
    210 H162       66.3016   59.5161   49.7015 T4         2 LUT      0.093752
    211 H161       67.5032   58.5188   48.8954 T4         2 LUT      0.093752
    212 HO3        67.0624   62.2288   52.8141 Q1         2 LUT      0.300121
    213 H8         69.1262   62.9602   46.6775 U7         2 LUT      0.080784
    214 H7         68.6305   60.0062   46.6505 U6         2 LUT      0.042190
    215 H42        65.3891   62.4600   49.8458 U5         2 LUT      0.145166
    216 H41        66.5253   63.7069   49.9043 U5         2 LUT      0.145166
    217 H35        76.9606   65.6370   42.2045 T3         2 LUT      0.077919
    218 H34        78.2210   64.5868   39.5215 T2         2 LUT      0.073626
    219 H32        80.0228   65.2318   38.5562 T1         2 LUT      0.092510
    220 H31        81.5510   67.6034   39.6853 U9         2 LUT      0.070048
    221 H30        81.7721   65.7027   37.2802 U8         2 LUT      0.085442
    222 H3         66.2757   61.0887   51.2212 U3         2 LUT     -0.031596
    223 H28        83.4174   65.8497   35.6606 U7         2 LUT      0.084728
    224 H27        85.6081   67.9630   35.8402 U6         2 LUT      0.087291
    225 H26        85.1634   65.5073   34.0964 Q6         2 LUT      0.075325
    226 H24        86.5791   67.6241   31.0054 Q5         2 LUT      0.094482
    227 H23        88.6567   67.1169   32.5212 U3         2 LUT     -0.024869
    228 H22        68.7445   60.6810   51.5454 U2         2 LUT      0.127376
    229 H21        69.1384   62.0374   50.6687 U2         2 LUT      0.127376
    230 H15        76.0359   63.4858   40.4310 T3         2 LUT      0.093200
    231 H14        75.1372   64.6415   43.1581 T2         2 LUT      0.068865
    232 H12        73.0658   64.2845   43.9507 T1         2 LUT      0.095507
    233 H11        71.1351   62.2982   42.6017 U9         2 LUT      0.068930
    234 H10        71.0575   63.6356   45.3427 U8         2 LUT      0.083911
    235 H1         87.9827   65.2857   30.5318 Q1         2 LUT      0.297311
@<TRIPOS>BOND
    1     6     1 1
    2     7     2 1
    3     8     3 1
    4     9     4 1
    5    11     4 1
    6    12     6 1
    7    13     9 1
    8    16     9 1
    9    25     5 1
   10    25    16 1
   11    26    10 1
   12    26    17 1
   13    27    18 1
   14    28    14 1
   15    28    19 1
   16    29    12 1
   17    30    13 1
   18    31    24 1
   19    32     1 1
   20    32    25 1
   21    33    21 1
   22    33    26 1
   23    34    22 1
   24    34    27 1
   25    35    23 1
   26    35    28 1
   27    36    12 1
   28    36    24 1
   29    37    13 1
   30    37    15 1
   31    38    31 1
   32    39    20 1
   33    39    32 1
   34    40     2 1
   35    40    33 1
   36    41     3 1
   37    41    34 1
   38    42     4 1
   39    42    35 1
   40    43    38 1
   41    44     5 1
   42    44    17 1
   43    44    39 1
   44    45    10 1
   45    45    18 1
   46    45    40 1
   47    46    19 1
   48    46    41 1
   49    47    14 1
   50    47    16 1
   51    47    42 1
   52    48    38 1
   53    49    48 1
   54    50    49 1
   55    51    50 1
   56    52    51 1
   57    53    51 1
   58    54    53 1
   59    55    54 1
   60    56    55 1
   61    57    56 1
   62    58    56 1
   63    59    58 1
   64    60    59 1
   65    61    60 1
   66    62    61 1
   67    63    61 1
   68    64    27 1
   69    64    46 1
   70    65     5 1
   71    65    10 1
   72    65    64 1
   73    65    14 1
   74    66    23 1
   75    67    23 1
   76    68    23 1
   77    69    22 1
   78    70    22 1
   79    71    22 1
   80    72    21 1
   81    73    21 1
   82    74    21 1
   83    75    20 1
   84    76    20 1
   85    77    20 1
   86    78    15 1
   87    79    15 1
   88    80    15 1
   89    81     8 1
   90    82     8 1
   91    83     8 1
   92    84     7 1
   93    85     7 1
   94    86     6 1
   95    87     6 1
   96    88     3 1
   97    89     3 1
   98    90     1 1
   99    91     1 1
  100    92    63 1
  101    93    63 1
  102    94    63 1
  103    95    62 1
  104    96    62 1
  105    97    62 1
  106    98    60 1
  107    99    60 1
  108   100    59 1
  109   101    59 1
  110   102    58 1
  111   103    58 1
  112   104    57 1
  113   105    57 1
  114   106    57 1
  115   107    55 1
  116   108    55 1
  117   109    54 1
  118   110    54 1
  119   111    53 1
  120   112    53 1
  121   113    19 1
  122   114    18 1
  123   115    17 1
  124   116     9 1
  125   117     2 1
  126   118    52 1
  127   119    52 1
  128   120    52 1
  129   121    51 1
  130   122    50 1
  131   123    50 1
  132   124    49 1
  133   125    49 1
  134   126    48 1
  135   127    48 1
  136   128    43 1
  137   129    43 1
  138   130    43 1
  139   131    39 1
  140   132    32 1
  141   133    31 1
  142   134    61 1
  143   135    56 1
  144   136    24 1
  145   137    24 1
  146   139   138 1
  147   140   139 1
  148   141   140 1
  149   142   140 1
  150   143   142 1
  151   144   138 1
  152   144   143 1
  153   145   144 1
  154   146   145 1
  155   147   146 1
  156   148   147 1
  157   149   148 1
  158   150   149 1
  159   151   150 1
  160   152   151 1
  161   153   152 1
  162   154   138 1
  163   155   138 1
  164   156   143 1
  165   157   147 1
  166   158   151 1
  167   160   159 1
  168   161   160 1
  169   162   161 1
  170   163   161 1
  171   164   163 1
  172   165   159 1
  173   165   164 1
  174   166   165 1
  175   167   166 1
  176   168   167 1
  177   169   168 1
  178   170   169 1
  179   171   170 1
  180   172   171 1
  181   173   172 1
  182   174   153 1
  183   174   173 1
  184   175   159 1
  185   176   159 1
  186   177   164 1
  187   178   168 1
  188   179   172 1
  189   180   179 1
  190   181   179 1
  191   182   179 1
  192   183   178 1
  193   184   178 1
  194   185   178 1
  195   186   177 1
  196   187   177 1
  197   188   177 1
  198   189   176 1
  199   190   176 1
  200   191   176 1
  201   192   175 1
  202   193   175 1
  203   194   175 1
  204   195   160 1
  205   196   160 1
  206   197   158 1
  207   198   158 1
  208   199   158 1
  209   200   157 1
  210   201   157 1
  211   202   157 1
  212   203   156 1
  213   204   156 1
  214   205   156 1
  215   206   155 1
  216   207   155 1
  217   208   155 1
  218   209   154 1
  219   210   154 1
  220   211   154 1
  221   212   141 1
  222   213   146 1
  223   214   145 1
  224   215   142 1
  225   216   142 1
  226   217   174 1
  227   218   173 1
  228   219   171 1
  229   220   170 1
  230   221   169 1
  231   222   140 1
  232   223   167 1
  233   224   166 1
  234   225   165 1
  235   226   163 1
  236   227   161 1
  237   228   139 1
  238   229   139 1
  239   230   153 1
  240   231   152 1
  241   232   150 1
  242   233   149 1
  243   234   148 1
  244   235   162 1
  245   65    153 1
  246   65    174 1
@<TRIPOS>SUBSTRUCTURE
      1 CLA               1 ****               0 ****  **** 
      2 LUT             138 ****               0 ****  **** 
