@<TRIPOS>MOLECULE
Cpptraj generated mol2 file.
  235   246     2     0     0
SMALL
USER_CHARGES


@<TRIPOS>ATOM
      1 CAA        76.8358   58.2774   33.5395 a2         1 CLA     -0.055900
      2 CAB        77.0214   61.6616   42.6845 c8         1 CLA     -0.148500
      3 CAC        70.0986   57.7483   41.9539 a2         1 CLA     -0.012600
      4 CAD        72.7456   55.5965   34.4979 ck         1 CLA      0.398800
      5 NA         75.9596   58.4437   36.8777 ns         1 CLA     -0.225500
      6 CBA        78.0123   58.3554   32.6566 a2         1 CLA     -0.135000
      7 CBB        78.0435   61.3530   43.5011 c0         1 CLA     -0.395200
      8 CBC        70.3300   56.2323   42.2372 a3         1 CLA     -0.037700
      9 CBD        74.1814   56.1803   34.1992 a1         1 CLA     -0.053900
     10 NB         75.9317   59.8413   39.4966 nm         1 CLA     -0.295700
     11 OBD        72.1575   54.7530   33.8138 o2         1 CLA     -0.494600
     12 CGA        78.6024   56.9621   32.2112 c4         1 CLA      0.827000
     13 CGD        75.2318   55.1150   33.8172 c4         1 CLA      0.655300
     14 ND         73.0944   57.6555   37.3099 nm         1 CLA     -0.291600
     15 CED        76.0189   52.9797   34.3411 a3         1 CLA      0.005400
     16 CHA        74.5508   57.0795   35.4171 cs         1 CLA     -0.123800
     17 CHB        77.7666   59.9011   37.9091 aa         1 CLA     -0.291900
     18 CHC        74.5755   60.0002   41.4945 aa         1 CLA     -0.090400
     19 CHD        71.2764   57.5158   38.9150 aa         1 CLA     -0.052000
     20 CMA        79.5434   58.1173   36.0854 a3         1 CLA     -0.230700
     21 CMB        79.2126   61.5699   40.2565 a3         1 CLA     -0.180800
     22 CMC        72.2909   59.5460   43.5804 a3         1 CLA     -0.134000
     23 CMD        69.9692   55.7634   36.7029 a3         1 CLA     -0.141100
     24 C1         79.7011   54.9368   32.9355 a2         1 CLA      0.023000
     25 C1A        75.8346   57.6541   35.7528 ac         1 CLA     -0.015100
     26 C1B        77.1257   60.2962   39.1184 cr         1 CLA      0.054700
     27 C1C        73.3390   59.3838   41.1498 cn         1 CLA     -0.005600
     28 C1D        71.8379   57.2646   37.6446 ap         1 CLA     -0.047300
     29 O1A        78.5245   56.4817   31.0947 o2         1 CLA     -0.610800
     30 O1D        75.9635   55.2122   32.8560 o2         1 CLA     -0.558200
     31 C2         80.1991   54.3783   34.2186 c8         1 CLA     -0.325100
     32 C2A        77.1481   57.6924   34.9337 a1         1 CLA      0.098600
     33 C2B        77.7857   61.0036   40.2004 cb         1 CLA      0.088500
     34 C2C        72.2462   59.1033   42.0647 cb         1 CLA      0.053700
     35 C2D        71.2748   56.4736   36.5694 cb         1 CLA      0.058900
     36 O2A        79.3429   56.3734   33.2528 o1         1 CLA     -0.437200
     37 O2D        75.1396   54.0632   34.7390 o1         1 CLA     -0.357600
     38 C3         80.7754   53.1531   34.3965 c5         1 CLA      0.031200
     39 C3A        78.1172   58.6013   35.7067 a1         1 CLA      0.166800
     40 C3B        76.9026   61.0822   41.2640 cb         1 CLA      0.035000
     41 C3C        71.3407   58.3326   41.3518 cb         1 CLA     -0.089900
     42 C3D        72.3256   56.3218   35.7077 cb         1 CLA     -0.035900
     43 C4         79.9657   51.9524   34.7183 a3         1 CLA     -0.053300
     44 C4A        77.2489   59.0091   36.9021 ac         1 CLA      0.001800
     45 C4B        75.7498   60.2738   40.7997 cn         1 CLA     -0.020900
     46 C4C        71.8617   58.2395   39.9426 cr         1 CLA     -0.044400
     47 C4D        73.4002   57.0382   36.1913 c6         1 CLA     -0.046000
     48 C5         82.2304   52.9256   34.1694 a2         1 CLA     -0.070400
     49 C6         83.0932   54.1233   34.5358 a2         1 CLA      0.043900
     50 C7         82.9102   54.6681   35.9290 a2         1 CLA     -0.150000
     51 C8         83.3479   56.1429   36.1442 a1         1 CLA      0.064200
     52 C9         84.7984   56.3409   35.6128 a3         1 CLA     -0.259300
     53 C10        83.1773   56.6221   37.6807 a2         1 CLA     -0.071900
     54 C11        81.8671   56.2739   38.4988 a2         1 CLA      0.014500
     55 C12        81.9619   56.6880   40.0189 a2         1 CLA     -0.112100
     56 C13        80.6452   56.4442   40.8504 a1         1 CLA      0.089200
     57 C14        79.4506   57.2484   40.3827 a3         1 CLA     -0.239100
     58 C15        80.9486   56.5228   42.4301 a2         1 CLA     -0.102200
     59 C16        81.3667   57.8624   43.0424 a2         1 CLA      0.023900
     60 C17        81.5185   57.7553   44.5770 a2         1 CLA     -0.105700
     61 C18        82.0285   59.0415   45.2701 a1         1 CLA      0.206800
     62 C19        83.5460   59.3409   44.9988 a3         1 CLA     -0.280100
     63 C20        81.2106   60.2905   45.1050 a3         1 CLA     -0.280100
     64 NC         73.0748   58.8572   39.9377 nx         1 CLA     -0.309200
     65 MG         74.4961   58.9049   38.3117 mg         1 CLA      0.895000
     66 HMD3       69.9451   55.3194   37.7136 dc         1 CLA      0.064300
     67 HMD2       69.1402   56.4695   36.6517 dc         1 CLA      0.064300
     68 HMD1       69.9904   54.9706   35.9330 dc         1 CLA      0.064300
     69 HMC3       72.9142   60.4929   43.6231 dc         1 CLA      0.052100
     70 HMC2       71.2766   59.9436   43.9581 dc         1 CLA      0.052100
     71 HMC1       72.7374   58.7640   44.1571 dc         1 CLA      0.052100
     72 HMB3       79.4537   61.8529   39.2285 dc         1 CLA      0.063600
     73 HMB2       79.1803   62.4160   40.9237 dc         1 CLA      0.063600
     74 HMB1       79.9239   60.8218   40.6245 dc         1 CLA      0.063600
     75 HMA3       80.1227   57.9060   35.1815 dc         1 CLA      0.058300
     76 HMA2       80.0477   58.8392   36.6893 dc         1 CLA      0.058300
     77 HMA1       79.4489   57.2598   36.6856 dc         1 CLA      0.058300
     78 HED3       75.9613   52.2332   35.1304 dc         1 CLA      0.079300
     79 HED2       75.6727   52.5343   33.3845 dc         1 CLA      0.079300
     80 HED1       77.0703   53.3946   34.3003 dc         1 CLA      0.079300
     81 HBC3       69.4175   55.7647   42.6012 dc         1 CLA      0.016300
     82 HBC2       70.6719   55.7170   41.3977 dc         1 CLA      0.016300
     83 HBC1       70.9715   56.2397   43.1024 dc         1 CLA      0.016300
     84 HBB2       78.0285   61.5378   44.5844 da         1 CLA      0.183000
     85 HBB1       78.8410   60.7002   43.1051 da         1 CLA      0.183000
     86 HBA2       77.6660   58.8012   31.7417 dc         1 CLA      0.029400
     87 HBA1       78.7479   58.9722   33.2106 dc         1 CLA      0.029400
     88 HAC2       69.8109   58.2582   42.8615 dc         1 CLA      0.029300
     89 HAC1       69.3023   57.9534   41.2919 dc         1 CLA      0.029300
     90 HAA2       76.0721   57.6941   32.9955 dc         1 CLA      0.028700
     91 HAA1       76.4673   59.3098   33.6044 dc         1 CLA      0.028700
     92 H203       81.5474   61.0420   45.8414 dc         1 CLA      0.065600
     93 H202       81.3062   60.6336   44.0795 dc         1 CLA      0.065600
     94 H201       80.1927   59.9167   45.3164 dc         1 CLA      0.065600
     95 H193       83.7739   60.4136   45.4007 dc         1 CLA      0.065600
     96 H192       84.0948   58.6172   45.5239 dc         1 CLA      0.065600
     97 H191       83.8088   59.3985   43.9414 dc         1 CLA      0.065600
     98 H172       80.5368   57.5760   45.0230 dc         1 CLA      0.027600
     99 H171       82.1478   56.9031   44.6947 dc         1 CLA      0.027600
    100 H162       82.3987   58.0986   42.5698 dc         1 CLA      0.002900
    101 H161       80.7104   58.7112   42.8418 dc         1 CLA      0.002900
    102 H152       80.0999   56.1791   42.9567 dc         1 CLA      0.029100
    103 H151       81.6574   55.7874   42.7010 dc         1 CLA      0.029100
    104 H143       79.6682   58.3061   40.4091 dc         1 CLA      0.063600
    105 H142       79.1592   57.0589   39.4105 dc         1 CLA      0.063600
    106 H141       78.6762   57.0089   41.1069 dc         1 CLA      0.063600
    107 H122       82.8418   56.1111   40.4369 dc         1 CLA      0.032500
    108 H121       82.2356   57.7062   40.0476 dc         1 CLA      0.032500
    109 H112       81.0691   56.8413   38.0074 dc         1 CLA      0.006600
    110 H111       81.5920   55.2037   38.2560 dc         1 CLA      0.006600
    111 H102       83.9655   56.0675   38.1548 dc         1 CLA      0.024100
    112 H101       83.3801   57.6769   37.7308 dc         1 CLA      0.024100
    113 HHD        70.2329   57.1912   39.1002 da         1 CLA      0.174300
    114 HHC        74.7080   60.2110   42.5070 da         1 CLA      0.136800
    115 HHB        78.7566   60.2899   37.8944 da         1 CLA      0.138300
    116 HBD        74.0108   56.9937   33.4505 dc         1 CLA      0.107700
    117 HAB        76.1340   62.1413   43.0826 da         1 CLA      0.155200
    118 H93        84.8599   56.2648   34.5345 dc         1 CLA      0.069500
    119 H92        85.0665   57.3188   35.9661 dc         1 CLA      0.069500
    120 H91        85.4846   55.6173   36.0627 dc         1 CLA      0.069500
    121 H8         82.7468   56.6877   35.4124 dc         1 CLA      0.029300
    122 H72        81.8338   54.7297   36.1569 dc         1 CLA      0.044400
    123 H71        83.3918   54.0290   36.6349 dc         1 CLA      0.044400
    124 H62        84.1789   53.9216   34.4956 dc         1 CLA      0.015600
    125 H61        83.0325   54.9954   33.9094 dc         1 CLA      0.015600
    126 H52        82.4948   52.1295   34.8694 dc         1 CLA      0.033200
    127 H51        82.4425   52.4566   33.2198 dc         1 CLA      0.033200
    128 H43        80.0251   51.2555   33.8872 dc         1 CLA      0.037000
    129 H42        80.3303   51.5430   35.7135 dc         1 CLA      0.037000
    130 H41        78.8624   52.1670   34.7161 dc         1 CLA      0.037000
    131 H3A        78.2110   59.5704   35.1468 dc         1 CLA      0.041100
    132 H2A        77.6054   56.6808   34.9072 dc         1 CLA      0.083100
    133 H2         80.1353   55.0729   34.9882 da         1 CLA      0.180900
    134 H18        81.9629   58.8214   46.3169 dc         1 CLA     -0.003900
    135 H13        80.2963   55.4048   40.7770 dc         1 CLA      0.019700
    136 H12        78.7385   54.4493   32.7260 dc         1 CLA      0.120400
    137 H11        80.4493   54.9251   32.1699 dc         1 CLA      0.120400
    138 C1         66.6968   61.2756   49.7773 Z1         2 LUT      0.509236
    139 C2         66.7530   62.4914   50.7063 Z2         2 LUT     -0.434695
    140 C3         65.6046   63.4325   50.7083 Z3         2 LUT      0.437453
    141 O3         65.9471   64.5389   51.4279 S1         2 LUT     -0.547129
    142 C4         65.0011   63.6601   49.3768 Z4         2 LUT     -0.468603
    143 C5         65.6524   63.0163   48.2140 Z5         2 LUT      0.279246
    144 C6         66.5251   61.9354   48.3064 Z6         2 LUT     -0.305473
    145 C7         67.3343   61.4658   47.1658 Z7         2 LUT      0.069402
    146 C8         68.1410   62.2053   46.2903 Z8         2 LUT     -0.191631
    147 C9         68.8232   61.7796   45.0506 Z9         2 LUT      0.196698
    148 C10        69.6465   62.5708   44.3698 Y1         2 LUT     -0.208611
    149 C11        70.2076   62.4201   43.0044 Y2         2 LUT      0.030784
    150 C12        71.2032   63.2446   42.4859 Y3         2 LUT     -0.220316
    151 C13        72.0709   63.1600   41.3019 Y4         2 LUT      0.215937
    152 C14        73.3063   63.8013   41.3233 Y5         2 LUT     -0.185793
    153 C15        74.3558   63.7738   40.4334 Y6         2 LUT     -0.057835
    154 C16        65.5234   60.4319   50.2776 Y7         2 LUT     -0.405615
    155 C17        68.0499   60.5770   49.9124 Y7         2 LUT     -0.405615
    156 C18        65.2833   63.8246   46.9947 Y9         2 LUT     -0.369639
    157 C19        68.4847   60.3721   44.5926 W1         2 LUT     -0.333362
    158 C20        71.5382   62.4628   40.0672 W2         2 LUT     -0.323439
    159 C21        85.5770   64.5232   34.3359 Z1         2 LUT      0.406104
    160 C22        86.1688   63.9273   33.0086 Z2         2 LUT     -0.404965
    161 C23        86.4990   64.9824   31.9755 Z3         2 LUT      0.391255
    162 O23        86.9071   64.1725   30.8749 S1         2 LUT     -0.528210
    163 C24        85.3334   65.9157   31.8666 W6         2 LUT     -0.258361
    164 C25        84.2770   66.0171   32.6803 Z5         2 LUT      0.133546
    165 C26        84.1144   65.0549   33.9465 W8         2 LUT     -0.147008
    166 C27        83.5366   65.9097   35.0692 Z7         2 LUT      0.023843
    167 C28        82.4822   65.4949   35.8046 Z8         2 LUT     -0.216987
    168 C29        81.8560   65.9054   37.0355 Z9         2 LUT      0.206524
    169 C30        80.7068   65.2969   37.4121 Y1         2 LUT     -0.215556
    170 C31        80.0329   65.3563   38.6718 Y2         2 LUT      0.025142
    171 C32        78.7935   64.6942   38.7683 Y3         2 LUT     -0.212209
    172 C33        77.9907   64.6301   39.9702 Y4         2 LUT      0.240937
    173 C34        76.7423   64.1222   39.7743 Y5         2 LUT     -0.218862
    174 C35        75.6045   64.2155   40.7093 Y6         2 LUT     -0.023547
    175 C36        86.6249   65.5714   34.8527 Y7         2 LUT     -0.393485
    176 C37        85.7068   63.3810   35.3575 Y7         2 LUT     -0.393485
    177 C38        83.0303   66.8691   32.2745 Y9         2 LUT     -0.387526
    178 C39        82.5870   66.9817   37.7904 W1         2 LUT     -0.322618
    179 C40        78.5575   65.1629   41.3043 W2         2 LUT     -0.358472
    180 H403       78.5371   64.4140   42.1195 R7         2 LUT      0.097720
    181 H402       79.6097   65.2783   41.1808 R7         2 LUT      0.097720
    182 H401       77.9829   66.0535   41.6608 R7         2 LUT      0.097720
    183 H393       82.2021   67.2792   38.7431 R4         2 LUT      0.082505
    184 H392       83.6477   66.7936   37.8427 R4         2 LUT      0.082505
    185 H391       82.5515   67.9386   37.1912 R4         2 LUT      0.082505
    186 H383       82.7916   67.6348   33.0499 R1         2 LUT      0.104030
    187 H382       83.2839   67.3271   31.2756 R1         2 LUT      0.104030
    188 H381       82.1868   66.2922   32.0999 R1         2 LUT      0.104030
    189 H373       84.9946   62.5597   35.0839 T4         2 LUT      0.089537
    190 H372       86.7634   63.0525   35.3962 T4         2 LUT      0.089537
    191 H371       85.4271   63.8049   36.3340 T4         2 LUT      0.089537
    192 H363       87.6315   65.1676   34.8017 T4         2 LUT      0.089537
    193 H362       86.5366   66.3869   34.1277 T4         2 LUT      0.089537
    194 H361       86.2904   65.9515   35.8265 T4         2 LUT      0.089537
    195 H222       87.1382   63.4077   33.3345 U2         2 LUT      0.127376
    196 H221       85.5849   63.1381   32.5609 U2         2 LUT      0.127376
    197 H203       70.5070   62.4457   40.0437 R7         2 LUT      0.087068
    198 H202       71.8899   62.9019   39.0687 R7         2 LUT      0.087068
    199 H201       71.7519   61.3732   39.8794 R7         2 LUT      0.087068
    200 H193       68.9017   59.5859   45.3158 R4         2 LUT      0.089716
    201 H192       67.4014   60.2889   44.6367 R4         2 LUT      0.089716
    202 H191       68.8562   60.1233   43.5855 R4         2 LUT      0.089716
    203 H183       64.1763   63.9452   46.8098 R1         2 LUT      0.094572
    204 H182       65.7316   64.8512   47.1104 R1         2 LUT      0.094572
    205 H181       65.7769   63.4549   46.0542 R1         2 LUT      0.094572
    206 H173       68.8699   61.3097   49.7712 T4         2 LUT      0.093752
    207 H172       68.0981   60.1358   50.9285 T4         2 LUT      0.093752
    208 H171       68.1070   59.7370   49.2119 T4         2 LUT      0.093752
    209 H163       65.6342   60.0361   51.2841 T4         2 LUT      0.093752
    210 H162       64.5075   60.8370   50.2727 T4         2 LUT      0.093752
    211 H161       65.5186   59.5818   49.7019 T4         2 LUT      0.093752
    212 HO3        65.2130   64.8772   51.9309 Q1         2 LUT      0.300121
    213 H8         68.1915   63.2915   46.5162 U7         2 LUT      0.080784
    214 H7         67.2444   60.3706   47.1068 U6         2 LUT      0.042190
    215 H42        63.9362   63.2861   49.2481 U5         2 LUT      0.145166
    216 H41        64.8235   64.7409   49.2514 U5         2 LUT      0.145166
    217 H35        75.5497   64.6368   41.7195 T3         2 LUT      0.077919
    218 H34        76.4011   63.7409   38.8146 T2         2 LUT      0.073626
    219 H32        78.2991   64.1838   37.9220 T1         2 LUT      0.092510
    220 H31        80.6343   65.8875   39.4683 U9         2 LUT      0.070048
    221 H30        80.3560   64.5580   36.6739 U8         2 LUT      0.085442
    222 H3         64.9581   62.7019   51.2779 U3         2 LUT     -0.031596
    223 H28        81.9859   64.5777   35.3301 U7         2 LUT      0.084728
    224 H27        84.1173   66.7524   35.5381 U6         2 LUT      0.087291
    225 H26        83.4647   64.2251   33.5559 Q6         2 LUT      0.075325
    226 H24        85.3970   66.5458   30.9765 Q5         2 LUT      0.094482
    227 H23        87.3525   65.6113   32.3559 U3         2 LUT     -0.024869
    228 H22        66.8129   62.1661   51.7291 U2         2 LUT      0.127376
    229 H21        67.6723   63.1166   50.4376 U2         2 LUT      0.127376
    230 H15        74.1651   63.2943   39.4664 T3         2 LUT      0.093200
    231 H14        73.6325   64.3545   42.1459 T2         2 LUT      0.068865
    232 H12        71.5175   63.9450   43.2325 T1         2 LUT      0.095507
    233 H11        70.0519   61.6084   42.3826 U9         2 LUT      0.068930
    234 H10        69.7976   63.5609   44.7963 U8         2 LUT      0.083911
    235 H1         87.2115   64.7415   30.1122 Q1         2 LUT      0.297311
@<TRIPOS>BOND
    1     6     1 1
    2     7     2 1
    3     8     3 1
    4     9     4 1
    5    11     4 1
    6    12     6 1
    7    13     9 1
    8    16     9 1
    9    25     5 1
   10    25    16 1
   11    26    10 1
   12    26    17 1
   13    27    18 1
   14    28    14 1
   15    28    19 1
   16    29    12 1
   17    30    13 1
   18    31    24 1
   19    32     1 1
   20    32    25 1
   21    33    21 1
   22    33    26 1
   23    34    22 1
   24    34    27 1
   25    35    23 1
   26    35    28 1
   27    36    12 1
   28    36    24 1
   29    37    13 1
   30    37    15 1
   31    38    31 1
   32    39    20 1
   33    39    32 1
   34    40     2 1
   35    40    33 1
   36    41     3 1
   37    41    34 1
   38    42     4 1
   39    42    35 1
   40    43    38 1
   41    44     5 1
   42    44    17 1
   43    44    39 1
   44    45    10 1
   45    45    18 1
   46    45    40 1
   47    46    19 1
   48    46    41 1
   49    47    14 1
   50    47    16 1
   51    47    42 1
   52    48    38 1
   53    49    48 1
   54    50    49 1
   55    51    50 1
   56    52    51 1
   57    53    51 1
   58    54    53 1
   59    55    54 1
   60    56    55 1
   61    57    56 1
   62    58    56 1
   63    59    58 1
   64    60    59 1
   65    61    60 1
   66    62    61 1
   67    63    61 1
   68    64    27 1
   69    64    46 1
   70    65     5 1
   71    65    10 1
   72    65    64 1
   73    65    14 1
   74    66    23 1
   75    67    23 1
   76    68    23 1
   77    69    22 1
   78    70    22 1
   79    71    22 1
   80    72    21 1
   81    73    21 1
   82    74    21 1
   83    75    20 1
   84    76    20 1
   85    77    20 1
   86    78    15 1
   87    79    15 1
   88    80    15 1
   89    81     8 1
   90    82     8 1
   91    83     8 1
   92    84     7 1
   93    85     7 1
   94    86     6 1
   95    87     6 1
   96    88     3 1
   97    89     3 1
   98    90     1 1
   99    91     1 1
  100    92    63 1
  101    93    63 1
  102    94    63 1
  103    95    62 1
  104    96    62 1
  105    97    62 1
  106    98    60 1
  107    99    60 1
  108   100    59 1
  109   101    59 1
  110   102    58 1
  111   103    58 1
  112   104    57 1
  113   105    57 1
  114   106    57 1
  115   107    55 1
  116   108    55 1
  117   109    54 1
  118   110    54 1
  119   111    53 1
  120   112    53 1
  121   113    19 1
  122   114    18 1
  123   115    17 1
  124   116     9 1
  125   117     2 1
  126   118    52 1
  127   119    52 1
  128   120    52 1
  129   121    51 1
  130   122    50 1
  131   123    50 1
  132   124    49 1
  133   125    49 1
  134   126    48 1
  135   127    48 1
  136   128    43 1
  137   129    43 1
  138   130    43 1
  139   131    39 1
  140   132    32 1
  141   133    31 1
  142   134    61 1
  143   135    56 1
  144   136    24 1
  145   137    24 1
  146   139   138 1
  147   140   139 1
  148   141   140 1
  149   142   140 1
  150   143   142 1
  151   144   138 1
  152   144   143 1
  153   145   144 1
  154   146   145 1
  155   147   146 1
  156   148   147 1
  157   149   148 1
  158   150   149 1
  159   151   150 1
  160   152   151 1
  161   153   152 1
  162   154   138 1
  163   155   138 1
  164   156   143 1
  165   157   147 1
  166   158   151 1
  167   160   159 1
  168   161   160 1
  169   162   161 1
  170   163   161 1
  171   164   163 1
  172   165   159 1
  173   165   164 1
  174   166   165 1
  175   167   166 1
  176   168   167 1
  177   169   168 1
  178   170   169 1
  179   171   170 1
  180   172   171 1
  181   173   172 1
  182   174   153 1
  183   174   173 1
  184   175   159 1
  185   176   159 1
  186   177   164 1
  187   178   168 1
  188   179   172 1
  189   180   179 1
  190   181   179 1
  191   182   179 1
  192   183   178 1
  193   184   178 1
  194   185   178 1
  195   186   177 1
  196   187   177 1
  197   188   177 1
  198   189   176 1
  199   190   176 1
  200   191   176 1
  201   192   175 1
  202   193   175 1
  203   194   175 1
  204   195   160 1
  205   196   160 1
  206   197   158 1
  207   198   158 1
  208   199   158 1
  209   200   157 1
  210   201   157 1
  211   202   157 1
  212   203   156 1
  213   204   156 1
  214   205   156 1
  215   206   155 1
  216   207   155 1
  217   208   155 1
  218   209   154 1
  219   210   154 1
  220   211   154 1
  221   212   141 1
  222   213   146 1
  223   214   145 1
  224   215   142 1
  225   216   142 1
  226   217   174 1
  227   218   173 1
  228   219   171 1
  229   220   170 1
  230   221   169 1
  231   222   140 1
  232   223   167 1
  233   224   166 1
  234   225   165 1
  235   226   163 1
  236   227   161 1
  237   228   139 1
  238   229   139 1
  239   230   153 1
  240   231   152 1
  241   232   150 1
  242   233   149 1
  243   234   148 1
  244   235   162 1
  245   65    153 1
  246   65    174 1
@<TRIPOS>SUBSTRUCTURE
      1 CLA               1 ****               0 ****  **** 
      2 LUT             138 ****               0 ****  **** 
