@<TRIPOS>MOLECULE
Cpptraj generated mol2 file.
  235   246     2     0     0
SMALL
USER_CHARGES


@<TRIPOS>ATOM
      1 CAA        80.1314   58.0207   35.1393 a2         1 CLA     -0.055900
      2 CAB        79.8441   62.6104   43.6374 c8         1 CLA     -0.148500
      3 CAC        73.0431   58.1249   43.4722 a2         1 CLA     -0.012600
      4 CAD        75.5710   55.8011   36.0816 ck         1 CLA      0.398800
      5 NA         78.9639   58.5059   38.4730 ns         1 CLA     -0.225500
      6 CBA        81.4266   57.8310   34.3830 a2         1 CLA     -0.135000
      7 CBB        81.0758   62.9389   44.1813 c0         1 CLA     -0.395200
      8 CBC        73.0369   56.5769   43.3405 a3         1 CLA     -0.037700
      9 CBD        77.1041   56.1086   35.9024 a1         1 CLA     -0.053900
     10 NB         78.6982   60.3721   40.8785 nm         1 CLA     -0.295700
     11 OBD        74.8779   55.1332   35.3754 o2         1 CLA     -0.494600
     12 CGA        81.7569   56.3310   33.9928 c4         1 CLA      0.827000
     13 CGD        77.8792   54.7713   35.7698 c4         1 CLA      0.655300
     14 ND         76.1101   57.7563   39.0152 nm         1 CLA     -0.291600
     15 CED        78.0347   52.4118   36.3763 a3         1 CLA      0.005400
     16 CHA        77.5287   57.1189   37.0091 cs         1 CLA     -0.123800
     17 CHB        80.6892   59.9605   39.3934 aa         1 CLA     -0.291900
     18 CHC        77.3684   60.8099   42.7934 aa         1 CLA     -0.090400
     19 CHD        74.2303   57.7114   40.5595 aa         1 CLA     -0.052000
     20 CMA        82.1785   57.3513   38.1487 a3         1 CLA     -0.230700
     21 CMB        81.9600   62.0868   41.0905 a3         1 CLA     -0.180800
     22 CMC        75.1213   60.2838   44.8723 a3         1 CLA     -0.134000
     23 CMD        72.7493   56.1969   38.2265 a3         1 CLA     -0.141100
     24 C1         82.6014   54.3383   35.0288 a2         1 CLA      0.023000
     25 C1A        78.7983   57.6665   37.3317 ac         1 CLA     -0.015100
     26 C1B        79.9633   60.6598   40.4316 cr         1 CLA      0.054700
     27 C1C        76.3135   59.9807   42.5418 cn         1 CLA     -0.005600
     28 C1D        74.8058   57.3906   39.3510 ap         1 CLA     -0.047300
     29 O1A        81.3311   55.7136   32.9967 o2         1 CLA     -0.610800
     30 O1D        78.9174   54.6357   35.0676 o2         1 CLA     -0.558200
     31 C2         83.7083   53.9880   35.9831 c8         1 CLA     -0.325100
     32 C2A        80.1120   57.4532   36.5678 a1         1 CLA      0.098600
     33 C2B        80.6057   61.5666   41.3440 cb         1 CLA      0.088500
     34 C2C        75.1865   59.6870   43.4970 cb         1 CLA      0.053700
     35 C2D        74.2084   56.6531   38.2769 cb         1 CLA      0.058900
     36 O2A        82.5775   55.7852   34.9817 o1         1 CLA     -0.437200
     37 O2D        77.3794   53.7370   36.5187 o1         1 CLA     -0.357600
     38 C3         84.8635   53.3752   35.7262 c5         1 CLA      0.031200
     39 C3A        81.1632   58.2413   37.4855 a1         1 CLA      0.166800
     40 C3B        79.7325   61.7749   42.4035 cb         1 CLA      0.035000
     41 C3C        74.2646   58.7929   42.8847 cb         1 CLA     -0.089900
     42 C3D        75.2397   56.4353   37.3387 cb         1 CLA     -0.035900
     43 C4         85.0753   51.8791   35.7427 a3         1 CLA     -0.053300
     44 C4A        80.2303   58.9821   38.4971 ac         1 CLA      0.001800
     45 C4B        78.5341   61.0160   42.0429 cn         1 CLA     -0.020900
     46 C4C        74.8358   58.5973   41.5439 cr         1 CLA     -0.044400
     47 C4D        76.3864   57.1516   37.8321 c6         1 CLA     -0.046000
     48 C5         86.0240   54.1348   35.2703 a2         1 CLA     -0.070400
     49 C6         86.5903   55.1567   36.2580 a2         1 CLA      0.043900
     50 C7         86.8142   54.7208   37.6913 a2         1 CLA     -0.150000
     51 C8         86.7206   55.9456   38.7524 a1         1 CLA      0.064200
     52 C9         87.4326   57.2278   38.2444 a3         1 CLA     -0.259300
     53 C10        87.2201   55.5081   40.1406 a2         1 CLA     -0.071900
     54 C11        86.6957   56.2569   41.3320 a2         1 CLA      0.014500
     55 C12        87.5434   55.9782   42.6186 a2         1 CLA     -0.112100
     56 C13        87.0575   56.8097   43.8666 a1         1 CLA      0.089200
     57 C14        87.2706   58.3200   43.6082 a3         1 CLA     -0.239100
     58 C15        87.6722   56.3838   45.2083 a2         1 CLA     -0.102200
     59 C16        86.8384   56.9294   46.3863 a2         1 CLA      0.023900
     60 C17        87.0936   56.2231   47.7040 a2         1 CLA     -0.105700
     61 C18        86.3576   56.9325   48.9061 a1         1 CLA      0.206800
     62 C19        84.8066   56.9246   48.8273 a3         1 CLA     -0.280100
     63 C20        86.9832   56.5667   50.1932 a3         1 CLA     -0.280100
     64 NC         76.0842   59.2545   41.4196 nx         1 CLA     -0.309200
     65 MG         77.3465   59.1346   39.9069 mg         1 CLA      0.895000
     66 HMD3       72.2706   55.7179   39.1058 dc         1 CLA      0.064300
     67 HMD2       72.1900   57.0517   37.9748 dc         1 CLA      0.064300
     68 HMD1       72.6390   55.5576   37.3992 dc         1 CLA      0.064300
     69 HMC3       74.1639   60.1041   45.4358 dc         1 CLA      0.052100
     70 HMC2       75.8874   59.7624   45.4204 dc         1 CLA      0.052100
     71 HMC1       75.2752   61.3530   44.7614 dc         1 CLA      0.052100
     72 HMB3       81.8543   63.1044   41.3506 dc         1 CLA      0.063600
     73 HMB2       82.6886   61.6220   41.7064 dc         1 CLA      0.063600
     74 HMB1       82.2760   62.1729   40.0573 dc         1 CLA      0.063600
     75 HMA3       82.8458   56.8419   37.3849 dc         1 CLA      0.058300
     76 HMA2       82.5953   57.9326   39.0029 dc         1 CLA      0.058300
     77 HMA1       81.6578   56.5420   38.6649 dc         1 CLA      0.058300
     78 HED3       77.8840   51.9277   35.4123 dc         1 CLA      0.079300
     79 HED2       79.0458   52.5449   36.5082 dc         1 CLA      0.079300
     80 HED1       77.7643   51.7695   37.2102 dc         1 CLA      0.079300
     81 HBC3       72.1305   56.1786   43.8078 dc         1 CLA      0.016300
     82 HBC2       73.1878   56.2332   42.3467 dc         1 CLA      0.016300
     83 HBC1       73.7613   56.1240   43.9921 dc         1 CLA      0.016300
     84 HBB2       81.2266   63.5401   45.1092 da         1 CLA      0.183000
     85 HBB1       81.9941   62.4986   43.8087 da         1 CLA      0.183000
     86 HBA2       81.4108   58.3771   33.4929 dc         1 CLA      0.029400
     87 HBA1       82.2874   58.3103   34.9177 dc         1 CLA      0.029400
     88 HAC2       72.9333   58.3818   44.5515 dc         1 CLA      0.029300
     89 HAC1       72.1629   58.6037   42.9701 dc         1 CLA      0.029300
     90 HAA2       79.2404   57.6814   34.6074 dc         1 CLA      0.028700
     91 HAA1       80.0303   59.1067   35.3262 dc         1 CLA      0.028700
     92 H203       88.0391   56.5534   50.0786 dc         1 CLA      0.065600
     93 H202       86.8947   57.3847   50.9309 dc         1 CLA      0.065600
     94 H201       86.6898   55.5912   50.4940 dc         1 CLA      0.065600
     95 H193       84.5516   57.5463   47.9356 dc         1 CLA      0.065600
     96 H192       84.3186   55.9123   48.8035 dc         1 CLA      0.065600
     97 H191       84.5068   57.5289   49.7050 dc         1 CLA      0.065600
     98 H172       86.7768   55.1978   47.6138 dc         1 CLA      0.027600
     99 H171       88.1845   56.2643   47.8991 dc         1 CLA      0.027600
    100 H162       87.1025   57.9895   46.5641 dc         1 CLA      0.002900
    101 H161       85.7812   56.8283   45.9995 dc         1 CLA      0.002900
    102 H152       87.6165   55.3612   45.4277 dc         1 CLA      0.029100
    103 H151       88.7104   56.6901   45.2864 dc         1 CLA      0.029100
    104 H143       86.4729   58.5506   42.8933 dc         1 CLA      0.063600
    105 H142       86.9218   58.8484   44.4732 dc         1 CLA      0.063600
    106 H141       88.3051   58.5249   43.3482 dc         1 CLA      0.063600
    107 H122       87.3808   54.9884   42.9701 dc         1 CLA      0.032500
    108 H121       88.6203   56.2399   42.3728 dc         1 CLA      0.032500
    109 H112       86.5981   57.3413   41.1635 dc         1 CLA      0.006600
    110 H111       85.6041   56.0174   41.3454 dc         1 CLA      0.006600
    111 H102       87.1072   54.4583   40.3487 dc         1 CLA      0.024100
    112 H101       88.3721   55.5703   40.0956 dc         1 CLA      0.024100
    113 HHD        73.2889   57.3468   40.7073 da         1 CLA      0.174300
    114 HHC        77.3482   61.2991   43.7121 da         1 CLA      0.136800
    115 HHB        81.7527   60.2275   39.3023 da         1 CLA      0.138300
    116 HBD        77.2072   56.6302   34.9542 dc         1 CLA      0.107700
    117 HAB        78.9339   62.9694   44.0828 da         1 CLA      0.155200
    118 H93        86.8214   57.5668   37.4397 dc         1 CLA      0.069500
    119 H92        87.4105   58.0132   39.0259 dc         1 CLA      0.069500
    120 H91        88.4771   57.0095   37.9052 dc         1 CLA      0.069500
    121 H8         85.6252   56.0975   38.9398 dc         1 CLA      0.029300
    122 H72        85.9826   54.0752   38.0384 dc         1 CLA      0.044400
    123 H71        87.7348   54.0619   37.8045 dc         1 CLA      0.044400
    124 H62        87.5052   55.5500   35.8452 dc         1 CLA      0.015600
    125 H61        85.8657   55.8746   36.2094 dc         1 CLA      0.015600
    126 H52        86.8923   53.4935   35.0135 dc         1 CLA      0.033200
    127 H51        85.7488   54.6678   34.2866 dc         1 CLA      0.033200
    128 H43        84.2077   51.4073   36.1147 dc         1 CLA      0.037000
    129 H42        85.1736   51.2811   34.8375 dc         1 CLA      0.037000
    130 H41        85.8462   51.6701   36.4290 dc         1 CLA      0.037000
    131 H3A        81.6586   59.0295   36.9986 dc         1 CLA      0.041100
    132 H2A        80.3772   56.4532   36.4433 dc         1 CLA      0.083100
    133 H2         83.6003   54.3690   37.0077 da         1 CLA      0.180900
    134 H18        86.5796   57.8520   48.8132 dc         1 CLA     -0.003900
    135 H13        86.0406   56.5532   44.0203 dc         1 CLA      0.019700
    136 H12        81.5764   53.9409   35.2314 dc         1 CLA      0.120400
    137 H11        82.9238   54.0008   34.0400 dc         1 CLA      0.120400
    138 C1         69.0313   61.6818   49.7579 Z1         2 LUT      0.509236
    139 C2         67.7722   61.3314   50.5395 Z2         2 LUT     -0.434695
    140 C3         66.7559   62.5421   50.7661 Z3         2 LUT      0.437453
    141 O3         66.7756   62.8214   52.1755 S1         2 LUT     -0.547129
    142 C4         67.0368   63.8135   49.9627 Z4         2 LUT     -0.468603
    143 C5         67.7699   63.5886   48.7423 Z5         2 LUT      0.279246
    144 C6         68.7175   62.6580   48.5999 Z6         2 LUT     -0.305473
    145 C7         69.2779   62.3019   47.2280 Z7         2 LUT      0.069402
    146 C8         70.4911   62.6661   46.7041 Z8         2 LUT     -0.191631
    147 C9         71.1120   62.2296   45.4285 Z9         2 LUT      0.196698
    148 C10        72.2303   62.9922   44.9936 Y1         2 LUT     -0.208611
    149 C11        72.9871   62.8946   43.7979 Y2         2 LUT      0.030784
    150 C12        73.8803   63.8329   43.3327 Y3         2 LUT     -0.220316
    151 C13        74.7641   63.7229   42.1957 Y4         2 LUT      0.215937
    152 C14        75.9523   64.4553   42.2435 Y5         2 LUT     -0.185793
    153 C15        77.0945   64.4409   41.3740 Y6         2 LUT     -0.057835
    154 C16        69.7515   60.3521   49.3039 Y7         2 LUT     -0.405615
    155 C17        70.0190   62.2584   50.8119 Y7         2 LUT     -0.405615
    156 C18        67.4723   64.5889   47.6925 Y9         2 LUT     -0.369639
    157 C19        70.5212   61.0769   44.6429 W1         2 LUT     -0.333362
    158 C20        74.4595   62.6977   41.1232 W2         2 LUT     -0.323439
    159 C21        88.5125   65.2703   35.3197 Z1         2 LUT      0.406104
    160 C22        89.3081   64.6872   34.0737 Z2         2 LUT     -0.404965
    161 C23        89.5136   65.6003   32.8758 Z3         2 LUT      0.391255
    162 O23        90.1382   64.8819   31.7816 S1         2 LUT     -0.528210
    163 C24        88.1440   66.2395   32.5480 W6         2 LUT     -0.258361
    164 C25        87.1317   66.4373   33.4141 Z5         2 LUT      0.133546
    165 C26        87.1277   65.7845   34.7468 W8         2 LUT     -0.147008
    166 C27        86.3915   66.6628   35.7772 Z7         2 LUT      0.023843
    167 C28        85.1292   66.3071   36.1819 Z8         2 LUT     -0.216987
    168 C29        84.4096   66.7074   37.3668 Z9         2 LUT      0.206524
    169 C30        83.3675   65.9074   37.8401 Y1         2 LUT     -0.215556
    170 C31        82.6235   66.0706   39.0693 Y2         2 LUT      0.025142
    171 C32        81.4692   65.4565   39.3117 Y3         2 LUT     -0.212209
    172 C33        80.5342   65.7179   40.3752 Y4         2 LUT      0.240937
    173 C34        79.3262   65.0881   40.4776 Y5         2 LUT     -0.218862
    174 C35        78.2527   65.1482   41.4594 Y6         2 LUT     -0.023547
    175 C36        89.3903   66.3632   35.9420 Y7         2 LUT     -0.393485
    176 C37        88.4020   64.1426   36.3708 Y7         2 LUT     -0.393485
    177 C38        85.8489   67.2138   33.0286 Y9         2 LUT     -0.387526
    178 C39        84.6919   68.0715   38.0016 W1         2 LUT     -0.322618
    179 C40        80.9653   66.5644   41.5753 W2         2 LUT     -0.358472
    180 H403       80.2364   66.7112   42.3967 R7         2 LUT      0.097720
    181 H402       81.7847   66.0125   42.0503 R7         2 LUT      0.097720
    182 H401       81.3984   67.5547   41.3066 R7         2 LUT      0.097720
    183 H393       85.3632   68.7294   37.5016 R4         2 LUT      0.082505
    184 H392       83.7583   68.5543   38.0701 R4         2 LUT      0.082505
    185 H391       85.0255   68.0201   39.0644 R4         2 LUT      0.082505
    186 H383       85.6824   67.4058   31.9997 R1         2 LUT      0.104030
    187 H382       85.0087   66.6525   33.3347 R1         2 LUT      0.104030
    188 H381       85.8346   68.1136   33.5971 R1         2 LUT      0.104030
    189 H373       89.4281   63.7589   36.3934 T4         2 LUT      0.089537
    190 H372       88.1234   64.5661   37.3264 T4         2 LUT      0.089537
    191 H371       87.6779   63.4634   36.1119 T4         2 LUT      0.089537
    192 H363       90.3222   65.9225   36.3512 T4         2 LUT      0.089537
    193 H362       89.6750   67.1191   35.2325 T4         2 LUT      0.089537
    194 H361       88.8769   66.7557   36.7361 T4         2 LUT      0.089537
    195 H222       90.2605   64.2030   34.3821 U2         2 LUT      0.127376
    196 H221       88.6932   63.9250   33.6511 U2         2 LUT      0.127376
    197 H203       73.5356   63.0117   40.6933 R7         2 LUT      0.087068
    198 H202       75.1274   62.7069   40.2796 R7         2 LUT      0.087068
    199 H201       74.2415   61.6954   41.5231 R7         2 LUT      0.087068
    200 H193       70.8907   60.9405   43.5986 R4         2 LUT      0.089716
    201 H192       70.6611   60.0346   45.1118 R4         2 LUT      0.089716
    202 H191       69.4622   61.2814   44.4615 R4         2 LUT      0.089716
    203 H183       66.7309   65.3005   48.0250 R1         2 LUT      0.094572
    204 H182       68.2781   65.1782   47.6356 R1         2 LUT      0.094572
    205 H181       67.3912   64.1459   46.6211 R1         2 LUT      0.094572
    206 H173       70.7176   62.8959   50.2194 T4         2 LUT      0.093752
    207 H172       69.5796   62.8595   51.5700 T4         2 LUT      0.093752
    208 H171       70.5870   61.4073   51.2533 T4         2 LUT      0.093752
    209 H163       69.8325   59.6247   50.0960 T4         2 LUT      0.093752
    210 H162       69.1676   59.9200   48.4682 T4         2 LUT      0.093752
    211 H161       70.7541   60.5257   49.0165 T4         2 LUT      0.093752
    212 HO3        66.1167   62.3139   52.7083 Q1         2 LUT      0.300121
    213 H8         70.9896   63.4230   47.3019 U7         2 LUT      0.080784
    214 H7         68.6098   61.6806   46.6291 U6         2 LUT      0.042190
    215 H42        65.9759   64.1332   49.7509 U5         2 LUT      0.145166
    216 H41        67.4447   64.6786   50.5646 U5         2 LUT      0.145166
    217 H35        78.2628   65.8502   42.2557 T3         2 LUT      0.077919
    218 H34        79.2053   64.4503   39.6061 T2         2 LUT      0.073626
    219 H32        81.1532   64.7178   38.6214 T1         2 LUT      0.092510
    220 H31        82.9692   66.9483   39.6742 U9         2 LUT      0.070048
    221 H30        83.1725   64.9860   37.3111 U8         2 LUT      0.085442
    222 H3         65.7504   62.2550   50.5129 U3         2 LUT     -0.031596
    223 H28        84.6479   65.3939   35.7693 U7         2 LUT      0.084728
    224 H27        86.8527   67.4135   36.3940 U6         2 LUT      0.087291
    225 H26        86.4580   64.9127   34.5755 Q6         2 LUT      0.075325
    226 H24        88.0926   66.6963   31.5382 Q5         2 LUT      0.094482
    227 H23        90.2870   66.3862   33.1716 U3         2 LUT     -0.024869
    228 H22        67.1445   60.7125   49.9435 U2         2 LUT      0.127376
    229 H21        67.9105   60.7735   51.5010 U2         2 LUT      0.127376
    230 H15        77.0305   63.7269   40.5285 T3         2 LUT      0.093200
    231 H14        75.9586   65.1257   43.1131 T2         2 LUT      0.068865
    232 H12        74.0605   64.6881   43.9337 T1         2 LUT      0.095507
    233 H11        72.8694   61.9389   43.3299 U9         2 LUT      0.068930
    234 H10        72.4955   63.8212   45.5842 U8         2 LUT      0.083911
    235 H1         89.4456   64.5894   31.1099 Q1         2 LUT      0.297311
@<TRIPOS>BOND
    1     6     1 1
    2     7     2 1
    3     8     3 1
    4     9     4 1
    5    11     4 1
    6    12     6 1
    7    13     9 1
    8    16     9 1
    9    25     5 1
   10    25    16 1
   11    26    10 1
   12    26    17 1
   13    27    18 1
   14    28    14 1
   15    28    19 1
   16    29    12 1
   17    30    13 1
   18    31    24 1
   19    32     1 1
   20    32    25 1
   21    33    21 1
   22    33    26 1
   23    34    22 1
   24    34    27 1
   25    35    23 1
   26    35    28 1
   27    36    12 1
   28    36    24 1
   29    37    13 1
   30    37    15 1
   31    38    31 1
   32    39    20 1
   33    39    32 1
   34    40     2 1
   35    40    33 1
   36    41     3 1
   37    41    34 1
   38    42     4 1
   39    42    35 1
   40    43    38 1
   41    44     5 1
   42    44    17 1
   43    44    39 1
   44    45    10 1
   45    45    18 1
   46    45    40 1
   47    46    19 1
   48    46    41 1
   49    47    14 1
   50    47    16 1
   51    47    42 1
   52    48    38 1
   53    49    48 1
   54    50    49 1
   55    51    50 1
   56    52    51 1
   57    53    51 1
   58    54    53 1
   59    55    54 1
   60    56    55 1
   61    57    56 1
   62    58    56 1
   63    59    58 1
   64    60    59 1
   65    61    60 1
   66    62    61 1
   67    63    61 1
   68    64    27 1
   69    64    46 1
   70    65     5 1
   71    65    10 1
   72    65    64 1
   73    65    14 1
   74    66    23 1
   75    67    23 1
   76    68    23 1
   77    69    22 1
   78    70    22 1
   79    71    22 1
   80    72    21 1
   81    73    21 1
   82    74    21 1
   83    75    20 1
   84    76    20 1
   85    77    20 1
   86    78    15 1
   87    79    15 1
   88    80    15 1
   89    81     8 1
   90    82     8 1
   91    83     8 1
   92    84     7 1
   93    85     7 1
   94    86     6 1
   95    87     6 1
   96    88     3 1
   97    89     3 1
   98    90     1 1
   99    91     1 1
  100    92    63 1
  101    93    63 1
  102    94    63 1
  103    95    62 1
  104    96    62 1
  105    97    62 1
  106    98    60 1
  107    99    60 1
  108   100    59 1
  109   101    59 1
  110   102    58 1
  111   103    58 1
  112   104    57 1
  113   105    57 1
  114   106    57 1
  115   107    55 1
  116   108    55 1
  117   109    54 1
  118   110    54 1
  119   111    53 1
  120   112    53 1
  121   113    19 1
  122   114    18 1
  123   115    17 1
  124   116     9 1
  125   117     2 1
  126   118    52 1
  127   119    52 1
  128   120    52 1
  129   121    51 1
  130   122    50 1
  131   123    50 1
  132   124    49 1
  133   125    49 1
  134   126    48 1
  135   127    48 1
  136   128    43 1
  137   129    43 1
  138   130    43 1
  139   131    39 1
  140   132    32 1
  141   133    31 1
  142   134    61 1
  143   135    56 1
  144   136    24 1
  145   137    24 1
  146   139   138 1
  147   140   139 1
  148   141   140 1
  149   142   140 1
  150   143   142 1
  151   144   138 1
  152   144   143 1
  153   145   144 1
  154   146   145 1
  155   147   146 1
  156   148   147 1
  157   149   148 1
  158   150   149 1
  159   151   150 1
  160   152   151 1
  161   153   152 1
  162   154   138 1
  163   155   138 1
  164   156   143 1
  165   157   147 1
  166   158   151 1
  167   160   159 1
  168   161   160 1
  169   162   161 1
  170   163   161 1
  171   164   163 1
  172   165   159 1
  173   165   164 1
  174   166   165 1
  175   167   166 1
  176   168   167 1
  177   169   168 1
  178   170   169 1
  179   171   170 1
  180   172   171 1
  181   173   172 1
  182   174   153 1
  183   174   173 1
  184   175   159 1
  185   176   159 1
  186   177   164 1
  187   178   168 1
  188   179   172 1
  189   180   179 1
  190   181   179 1
  191   182   179 1
  192   183   178 1
  193   184   178 1
  194   185   178 1
  195   186   177 1
  196   187   177 1
  197   188   177 1
  198   189   176 1
  199   190   176 1
  200   191   176 1
  201   192   175 1
  202   193   175 1
  203   194   175 1
  204   195   160 1
  205   196   160 1
  206   197   158 1
  207   198   158 1
  208   199   158 1
  209   200   157 1
  210   201   157 1
  211   202   157 1
  212   203   156 1
  213   204   156 1
  214   205   156 1
  215   206   155 1
  216   207   155 1
  217   208   155 1
  218   209   154 1
  219   210   154 1
  220   211   154 1
  221   212   141 1
  222   213   146 1
  223   214   145 1
  224   215   142 1
  225   216   142 1
  226   217   174 1
  227   218   173 1
  228   219   171 1
  229   220   170 1
  230   221   169 1
  231   222   140 1
  232   223   167 1
  233   224   166 1
  234   225   165 1
  235   226   163 1
  236   227   161 1
  237   228   139 1
  238   229   139 1
  239   230   153 1
  240   231   152 1
  241   232   150 1
  242   233   149 1
  243   234   148 1
  244   235   162 1
  245   65    153 1
  246   65    174 1
@<TRIPOS>SUBSTRUCTURE
      1 CLA               1 ****               0 ****  **** 
      2 LUT             138 ****               0 ****  **** 
