@<TRIPOS>MOLECULE
Cpptraj generated mol2 file.
  235   246     2     0     0
SMALL
USER_CHARGES


@<TRIPOS>ATOM
      1 CAA        79.4474   58.5294   34.5872 a2         1 CLA     -0.055900
      2 CAB        79.5217   61.8716   43.7243 c8         1 CLA     -0.148500
      3 CAC        72.4686   58.2141   42.7926 a2         1 CLA     -0.012600
      4 CAD        75.2517   55.8173   35.6323 ck         1 CLA      0.398800
      5 NA         78.4940   58.8911   37.8907 ns         1 CLA     -0.225500
      6 CBA        80.6876   58.2551   33.6721 a2         1 CLA     -0.135000
      7 CBB        80.2607   62.9624   44.0534 c0         1 CLA     -0.395200
      8 CBC        72.6602   56.7776   43.3707 a3         1 CLA     -0.037700
      9 CBD        76.8023   56.3070   35.4468 a1         1 CLA     -0.053900
     10 NB         78.3092   60.2316   40.4992 nm         1 CLA     -0.295700
     11 OBD        74.6169   55.0298   34.9240 o2         1 CLA     -0.494600
     12 CGA        81.0685   56.7546   33.4793 c4         1 CLA      0.827000
     13 CGD        77.7051   55.0506   35.5842 c4         1 CLA      0.655300
     14 ND         75.6609   57.9851   38.4144 nm         1 CLA     -0.291600
     15 CED        77.9049   52.8673   36.6497 a3         1 CLA      0.005400
     16 CHA        77.1284   57.3251   36.5252 cs         1 CLA     -0.123800
     17 CHB        80.2745   60.2345   38.9215 aa         1 CLA     -0.291900
     18 CHC        76.9823   60.5045   42.5541 aa         1 CLA     -0.090400
     19 CHD        73.6795   57.8935   40.0302 aa         1 CLA     -0.052000
     20 CMA        81.7839   58.0051   37.5670 a3         1 CLA     -0.230700
     21 CMB        81.5798   61.9646   41.2870 a3         1 CLA     -0.180800
     22 CMC        74.7390   59.8686   44.4533 a3         1 CLA     -0.134000
     23 CMD        72.6129   55.8658   37.7487 a3         1 CLA     -0.141100
     24 C1         82.2305   54.8291   34.3583 a2         1 CLA      0.023000
     25 C1A        78.2954   58.0794   36.8314 ac         1 CLA     -0.015100
     26 C1B        79.6293   60.6335   40.1475 cr         1 CLA      0.054700
     27 C1C        75.8094   59.8284   42.1819 cn         1 CLA     -0.005600
     28 C1D        74.3547   57.5414   38.8246 ap         1 CLA     -0.047300
     29 O1A        80.5821   56.0765   32.5790 o2         1 CLA     -0.610800
     30 O1D        78.7246   54.8938   34.9796 o2         1 CLA     -0.558200
     31 C2         82.8016   54.6727   35.7556 c8         1 CLA     -0.325100
     32 C2A        79.5963   57.9568   35.9983 a1         1 CLA      0.098600
     33 C2B        80.2137   61.2898   41.2927 cb         1 CLA      0.088500
     34 C2C        74.7305   59.4599   43.0334 cb         1 CLA      0.053700
     35 C2D        73.8902   56.6241   37.8240 cb         1 CLA      0.058900
     36 O2A        82.0309   56.2529   34.4203 o1         1 CLA     -0.437200
     37 O2D        77.2692   54.1694   36.4880 o1         1 CLA     -0.357600
     38 C3         84.1638   54.5497   35.9174 c5         1 CLA      0.031200
     39 C3A        80.6158   58.8084   36.9112 a1         1 CLA      0.166800
     40 C3B        79.2960   61.2843   42.3665 cb         1 CLA      0.035000
     41 C3C        73.7599   58.7899   42.3432 cb         1 CLA     -0.089900
     42 C3D        74.8686   56.5057   36.8474 cb         1 CLA     -0.035900
     43 C4         84.9347   53.3062   35.5439 a3         1 CLA     -0.053300
     44 C4A        79.7643   59.4181   37.9268 ac         1 CLA      0.001800
     45 C4B        78.1399   60.6155   41.8123 cn         1 CLA     -0.020900
     46 C4C        74.3129   58.7305   41.0259 cr         1 CLA     -0.044400
     47 C4D        75.9569   57.3569   37.2650 c6         1 CLA     -0.046000
     48 C5         84.8934   55.7695   36.5101 a2         1 CLA     -0.070400
     49 C6         86.1276   55.3933   37.2828 a2         1 CLA      0.043900
     50 C7         86.8734   56.6182   37.8406 a2         1 CLA     -0.150000
     51 C8         88.3329   56.3765   38.3783 a1         1 CLA      0.064200
     52 C9         89.2036   55.4136   37.5249 a3         1 CLA     -0.259300
     53 C10        88.3657   55.9590   39.9041 a2         1 CLA     -0.071900
     54 C11        87.8511   56.9452   40.9409 a2         1 CLA      0.014500
     55 C12        88.1565   56.4176   42.3728 a2         1 CLA     -0.112100
     56 C13        88.0292   57.5501   43.4791 a1         1 CLA      0.089200
     57 C14        88.6466   56.9747   44.7771 a3         1 CLA     -0.239100
     58 C15        86.5149   58.0626   43.7404 a2         1 CLA     -0.102200
     59 C16        86.3629   58.9776   44.9818 a2         1 CLA      0.023900
     60 C17        85.1314   59.8153   44.9781 a2         1 CLA     -0.105700
     61 C18        83.7433   59.1463   45.3781 a1         1 CLA      0.206800
     62 C19        83.7355   58.6087   46.8371 a3         1 CLA     -0.280100
     63 C20        82.6486   60.2732   45.1897 a3         1 CLA     -0.280100
     64 NC         75.6033   59.2536   40.9233 nx         1 CLA     -0.309200
     65 MG         76.9783   59.1979   39.3619 mg         1 CLA      0.895000
     66 HMD3       71.7398   56.3323   38.1877 dc         1 CLA      0.064300
     67 HMD2       72.2719   56.0327   36.7810 dc         1 CLA      0.064300
     68 HMD1       72.5445   54.8751   38.1380 dc         1 CLA      0.064300
     69 HMC3       75.6076   59.4947   44.8951 dc         1 CLA      0.052100
     70 HMC2       74.6187   60.9429   44.6083 dc         1 CLA      0.052100
     71 HMC1       73.8946   59.3937   44.9230 dc         1 CLA      0.052100
     72 HMB3       82.2412   61.1957   40.9534 dc         1 CLA      0.063600
     73 HMB2       81.8205   62.7652   40.6305 dc         1 CLA      0.063600
     74 HMB1       81.9033   62.0936   42.2960 dc         1 CLA      0.063600
     75 HMA3       82.3768   58.6680   38.1343 dc         1 CLA      0.058300
     76 HMA2       81.4658   57.2982   38.3610 dc         1 CLA      0.058300
     77 HMA1       82.4764   57.4929   36.9030 dc         1 CLA      0.058300
     78 HED3       78.9258   53.0297   36.5477 dc         1 CLA      0.079300
     79 HED2       77.6225   52.2996   37.5624 dc         1 CLA      0.079300
     80 HED1       77.6963   52.3171   35.7285 dc         1 CLA      0.079300
     81 HBC3       72.9417   56.0334   42.5831 dc         1 CLA      0.016300
     82 HBC2       73.3549   56.7922   44.2055 dc         1 CLA      0.016300
     83 HBC1       71.7122   56.4693   43.8405 dc         1 CLA      0.016300
     84 HBB2       80.2034   63.3013   45.0893 da         1 CLA      0.183000
     85 HBB1       80.8762   63.6533   43.4162 da         1 CLA      0.183000
     86 HBA2       80.3504   58.5977   32.7154 dc         1 CLA      0.029400
     87 HBA1       81.5100   58.9886   33.9271 dc         1 CLA      0.029400
     88 HAC2       72.0776   58.8616   43.5679 dc         1 CLA      0.029300
     89 HAC1       71.7726   58.2045   41.9662 dc         1 CLA      0.029300
     90 HAA2       78.5295   58.1003   34.0980 dc         1 CLA      0.028700
     91 HAA1       79.2995   59.5949   34.7008 dc         1 CLA      0.028700
     92 H203       83.0265   61.1447   45.7742 dc         1 CLA      0.065600
     93 H202       82.7490   60.6401   44.1708 dc         1 CLA      0.065600
     94 H201       81.7098   59.9358   45.4662 dc         1 CLA      0.065600
     95 H193       82.6877   58.3275   47.0241 dc         1 CLA      0.065600
     96 H192       84.2473   57.6822   46.8550 dc         1 CLA      0.065600
     97 H191       84.1826   59.2416   47.6000 dc         1 CLA      0.065600
     98 H172       85.3076   60.5825   45.6937 dc         1 CLA      0.027600
     99 H171       85.1012   60.2658   44.0331 dc         1 CLA      0.027600
    100 H162       86.3233   58.4301   45.9493 dc         1 CLA      0.002900
    101 H161       87.2939   59.5011   44.8458 dc         1 CLA      0.002900
    102 H152       86.2316   58.6653   42.8303 dc         1 CLA      0.029100
    103 H151       85.7971   57.2298   43.7989 dc         1 CLA      0.029100
    104 H143       87.9716   56.3114   45.2814 dc         1 CLA      0.063600
    105 H142       89.5208   56.3820   44.5951 dc         1 CLA      0.063600
    106 H141       88.9599   57.8344   45.4137 dc         1 CLA      0.063600
    107 H122       87.4891   55.5942   42.5616 dc         1 CLA      0.032500
    108 H121       89.1606   55.9940   42.3495 dc         1 CLA      0.032500
    109 H112       88.5306   57.8210   40.8661 dc         1 CLA      0.006600
    110 H111       86.8361   57.3465   40.8052 dc         1 CLA      0.006600
    111 H102       87.8279   55.0414   39.9698 dc         1 CLA      0.024100
    112 H101       89.4036   55.7734   39.9351 dc         1 CLA      0.024100
    113 HHD        72.6718   57.4289   40.1395 da         1 CLA      0.174300
    114 HHC        77.0220   60.8239   43.6249 da         1 CLA      0.136800
    115 HHB        81.3748   60.6200   38.7679 da         1 CLA      0.138300
    116 HBD        76.7228   56.7156   34.4706 dc         1 CLA      0.107700
    117 HAB        79.1845   61.3624   44.6595 da         1 CLA      0.155200
    118 H93        88.9209   54.3724   37.5966 dc         1 CLA      0.069500
    119 H92        88.9282   55.6853   36.5137 dc         1 CLA      0.069500
    120 H91        90.2323   55.7095   37.7884 dc         1 CLA      0.069500
    121 H8         88.8786   57.3213   38.3627 dc         1 CLA      0.029300
    122 H72        87.0454   57.1837   36.9460 dc         1 CLA      0.044400
    123 H71        86.2931   57.3109   38.4033 dc         1 CLA      0.044400
    124 H62        85.9326   54.5745   38.0073 dc         1 CLA      0.015600
    125 H61        86.7766   54.8713   36.6013 dc         1 CLA      0.015600
    126 H52        85.2476   56.3511   35.7055 dc         1 CLA      0.033200
    127 H51        84.2500   56.3868   37.1615 dc         1 CLA      0.033200
    128 H43        84.3675   52.4219   35.2373 dc         1 CLA      0.037000
    129 H42        85.4846   53.5314   34.6524 dc         1 CLA      0.037000
    130 H41        85.6127   53.0377   36.3688 dc         1 CLA      0.037000
    131 H3A        81.1522   59.5554   36.3036 dc         1 CLA      0.041100
    132 H2A        79.9409   56.8731   35.9492 dc         1 CLA      0.083100
    133 H2         82.1285   54.1995   36.5270 da         1 CLA      0.180900
    134 H18        83.5372   58.3357   44.6513 dc         1 CLA     -0.003900
    135 H13        88.5770   58.3623   43.1934 dc         1 CLA      0.019700
    136 H12        81.3421   54.2191   34.3215 dc         1 CLA      0.120400
    137 H11        82.9035   54.5685   33.5000 dc         1 CLA      0.120400
    138 C1         70.2895   62.1234   50.0146 Z1         2 LUT      0.509236
    139 C2         69.2245   61.7651   51.0399 Z2         2 LUT     -0.434695
    140 C3         68.2201   62.7516   51.5983 Z3         2 LUT      0.437453
    141 O3         68.6586   63.2034   52.8872 S1         2 LUT     -0.547129
    142 C4         68.1546   64.0351   50.7541 Z4         2 LUT     -0.468603
    143 C5         68.5955   63.8279   49.3202 Z5         2 LUT      0.279246
    144 C6         69.5512   62.9884   48.9326 Z6         2 LUT     -0.305473
    145 C7         69.8337   62.6612   47.5406 Z7         2 LUT      0.069402
    146 C8         71.0008   63.0546   46.9492 Z8         2 LUT     -0.191631
    147 C9         71.4741   62.8043   45.5445 Z9         2 LUT      0.196698
    148 C10        72.5594   63.4944   45.0770 Y1         2 LUT     -0.208611
    149 C11        73.2043   63.3359   43.8288 Y2         2 LUT      0.030784
    150 C12        74.3421   63.9642   43.5168 Y3         2 LUT     -0.220316
    151 C13        75.1362   63.8407   42.3244 Y4         2 LUT      0.215937
    152 C14        76.3940   64.3978   42.3281 Y5         2 LUT     -0.185793
    153 C15        77.5300   64.3342   41.5014 Y6         2 LUT     -0.057835
    154 C16        71.0485   60.8122   49.5380 Y7         2 LUT     -0.405615
    155 C17        71.2071   62.9516   50.8225 Y7         2 LUT     -0.405615
    156 C18        67.8416   64.7967   48.4270 Y9         2 LUT     -0.369639
    157 C19        70.6898   61.7900   44.6689 W1         2 LUT     -0.333362
    158 C20        74.6394   63.0708   41.0955 W2         2 LUT     -0.323439
    159 C21        88.5730   65.3610   35.4923 Z1         2 LUT      0.406104
    160 C22        89.3956   64.5255   34.4750 Z2         2 LUT     -0.404965
    161 C23        89.4049   65.0807   33.0646 Z3         2 LUT      0.391255
    162 O23        89.7065   64.0272   32.2120 S1         2 LUT     -0.528210
    163 C24        88.1190   65.6762   32.6204 W6         2 LUT     -0.258361
    164 C25        87.0719   65.9290   33.4193 Z5         2 LUT      0.133546
    165 C26        87.0976   65.5406   34.9244 W8         2 LUT     -0.147008
    166 C27        86.3926   66.5095   35.8973 Z7         2 LUT      0.023843
    167 C28        85.2659   66.1012   36.5265 Z8         2 LUT     -0.216987
    168 C29        84.5940   66.8275   37.5668 Z9         2 LUT      0.206524
    169 C30        83.6122   66.1140   38.1942 Y1         2 LUT     -0.215556
    170 C31        82.8617   66.4878   39.3260 Y2         2 LUT      0.025142
    171 C32        81.7839   65.7654   39.6735 Y3         2 LUT     -0.212209
    172 C33        80.8416   65.8763   40.8032 Y4         2 LUT      0.240937
    173 C34        79.8355   64.9043   40.8890 Y5         2 LUT     -0.218862
    174 C35        78.6906   64.9472   41.7801 Y6         2 LUT     -0.023547
    175 C36        89.3945   66.6867   35.6481 Y7         2 LUT     -0.393485
    176 C37        88.6044   64.7243   36.8732 Y7         2 LUT     -0.393485
    177 C38        85.7704   66.5151   32.9166 Y9         2 LUT     -0.387526
    178 C39        85.0841   68.2235   37.8752 W1         2 LUT     -0.322618
    179 C40        81.0273   67.0236   41.7284 W2         2 LUT     -0.358472
    180 H403       80.4899   66.8973   42.7031 R7         2 LUT      0.097720
    181 H402       82.0804   67.0295   41.9692 R7         2 LUT      0.097720
    182 H401       80.7784   67.9574   41.2408 R7         2 LUT      0.097720
    183 H393       84.4017   68.8691   38.4562 R4         2 LUT      0.082505
    184 H392       86.1022   68.1215   38.3721 R4         2 LUT      0.082505
    185 H391       85.2274   68.8858   37.0346 R4         2 LUT      0.082505
    186 H383       86.0550   67.2477   32.0590 R1         2 LUT      0.104030
    187 H382       85.1227   65.7461   32.4002 R1         2 LUT      0.104030
    188 H381       85.1730   67.0033   33.6785 R1         2 LUT      0.104030
    189 H373       88.0804   65.4063   37.5634 T4         2 LUT      0.089537
    190 H372       88.0789   63.7894   36.9157 T4         2 LUT      0.089537
    191 H371       89.6678   64.5978   36.9566 T4         2 LUT      0.089537
    192 H363       89.0555   67.3204   36.4841 T4         2 LUT      0.089537
    193 H362       90.4212   66.4924   35.8563 T4         2 LUT      0.089537
    194 H361       89.3196   67.2659   34.7261 T4         2 LUT      0.089537
    195 H222       90.3937   64.4779   34.9111 U2         2 LUT      0.127376
    196 H221       88.9169   63.4872   34.5130 U2         2 LUT      0.127376
    197 H203       75.4099   63.0062   40.3317 R7         2 LUT      0.087068
    198 H202       74.4070   62.0492   41.3459 R7         2 LUT      0.087068
    199 H201       73.8013   63.5682   40.5260 R7         2 LUT      0.087068
    200 H193       70.0283   61.2031   45.2524 R4         2 LUT      0.089716
    201 H192       70.1921   62.2471   43.8335 R4         2 LUT      0.089716
    202 H191       71.4330   61.0899   44.2347 R4         2 LUT      0.089716
    203 H183       68.5211   65.5914   48.2972 R1         2 LUT      0.094572
    204 H182       67.7423   64.2956   47.4410 R1         2 LUT      0.094572
    205 H181       66.8569   65.0183   48.8393 R1         2 LUT      0.094572
    206 H173       72.1908   63.2149   50.3790 T4         2 LUT      0.093752
    207 H172       70.7842   63.9388   51.0550 T4         2 LUT      0.093752
    208 H171       71.4652   62.4877   51.7657 T4         2 LUT      0.093752
    209 H163       71.9703   60.9385   48.9018 T4         2 LUT      0.093752
    210 H162       71.3526   60.0331   50.3066 T4         2 LUT      0.093752
    211 H161       70.4436   60.3128   48.8244 T4         2 LUT      0.093752
    212 HO3        67.8725   63.4109   53.3875 Q1         2 LUT      0.300121
    213 H8         71.7582   63.6507   47.4479 U7         2 LUT      0.080784
    214 H7         69.0818   62.1920   46.9463 U6         2 LUT      0.042190
    215 H42        67.0620   64.2940   50.6944 U5         2 LUT      0.145166
    216 H41        68.5506   64.9630   51.1411 U5         2 LUT      0.145166
    217 H35        78.6699   65.6432   42.6537 T3         2 LUT      0.077919
    218 H34        79.7516   64.1120   40.0810 T2         2 LUT      0.073626
    219 H32        81.6137   64.9973   38.9409 T1         2 LUT      0.092510
    220 H31        83.1107   67.3567   39.9592 U9         2 LUT      0.070048
    221 H30        83.3705   65.0653   37.8822 U8         2 LUT      0.085442
    222 H3         67.2149   62.3316   51.6768 U3         2 LUT     -0.031596
    223 H28        84.8035   65.1220   36.2069 U7         2 LUT      0.084728
    224 H27        86.9714   67.4675   36.1043 U6         2 LUT      0.087291
    225 H26        86.6967   64.5196   34.9294 Q6         2 LUT      0.075325
    226 H24        88.0142   65.9940   31.6008 Q5         2 LUT      0.094482
    227 H23        90.1057   65.9032   32.9492 U3         2 LUT     -0.024869
    228 H22        68.6450   61.1091   50.5063 U2         2 LUT      0.127376
    229 H21        69.6435   61.2790   51.9177 U2         2 LUT      0.127376
    230 H15        77.4770   63.7864   40.5776 T3         2 LUT      0.093200
    231 H14        76.6012   64.9687   43.3485 T2         2 LUT      0.068865
    232 H12        74.7261   64.5719   44.3029 T1         2 LUT      0.095507
    233 H11        72.7912   62.6603   43.1107 U9         2 LUT      0.068930
    234 H10        72.9660   64.1058   45.7947 U8         2 LUT      0.083911
    235 H1         89.8628   64.3028   31.3081 Q1         2 LUT      0.297311
@<TRIPOS>BOND
    1     6     1 1
    2     7     2 1
    3     8     3 1
    4     9     4 1
    5    11     4 1
    6    12     6 1
    7    13     9 1
    8    16     9 1
    9    25     5 1
   10    25    16 1
   11    26    10 1
   12    26    17 1
   13    27    18 1
   14    28    14 1
   15    28    19 1
   16    29    12 1
   17    30    13 1
   18    31    24 1
   19    32     1 1
   20    32    25 1
   21    33    21 1
   22    33    26 1
   23    34    22 1
   24    34    27 1
   25    35    23 1
   26    35    28 1
   27    36    12 1
   28    36    24 1
   29    37    13 1
   30    37    15 1
   31    38    31 1
   32    39    20 1
   33    39    32 1
   34    40     2 1
   35    40    33 1
   36    41     3 1
   37    41    34 1
   38    42     4 1
   39    42    35 1
   40    43    38 1
   41    44     5 1
   42    44    17 1
   43    44    39 1
   44    45    10 1
   45    45    18 1
   46    45    40 1
   47    46    19 1
   48    46    41 1
   49    47    14 1
   50    47    16 1
   51    47    42 1
   52    48    38 1
   53    49    48 1
   54    50    49 1
   55    51    50 1
   56    52    51 1
   57    53    51 1
   58    54    53 1
   59    55    54 1
   60    56    55 1
   61    57    56 1
   62    58    56 1
   63    59    58 1
   64    60    59 1
   65    61    60 1
   66    62    61 1
   67    63    61 1
   68    64    27 1
   69    64    46 1
   70    65     5 1
   71    65    10 1
   72    65    64 1
   73    65    14 1
   74    66    23 1
   75    67    23 1
   76    68    23 1
   77    69    22 1
   78    70    22 1
   79    71    22 1
   80    72    21 1
   81    73    21 1
   82    74    21 1
   83    75    20 1
   84    76    20 1
   85    77    20 1
   86    78    15 1
   87    79    15 1
   88    80    15 1
   89    81     8 1
   90    82     8 1
   91    83     8 1
   92    84     7 1
   93    85     7 1
   94    86     6 1
   95    87     6 1
   96    88     3 1
   97    89     3 1
   98    90     1 1
   99    91     1 1
  100    92    63 1
  101    93    63 1
  102    94    63 1
  103    95    62 1
  104    96    62 1
  105    97    62 1
  106    98    60 1
  107    99    60 1
  108   100    59 1
  109   101    59 1
  110   102    58 1
  111   103    58 1
  112   104    57 1
  113   105    57 1
  114   106    57 1
  115   107    55 1
  116   108    55 1
  117   109    54 1
  118   110    54 1
  119   111    53 1
  120   112    53 1
  121   113    19 1
  122   114    18 1
  123   115    17 1
  124   116     9 1
  125   117     2 1
  126   118    52 1
  127   119    52 1
  128   120    52 1
  129   121    51 1
  130   122    50 1
  131   123    50 1
  132   124    49 1
  133   125    49 1
  134   126    48 1
  135   127    48 1
  136   128    43 1
  137   129    43 1
  138   130    43 1
  139   131    39 1
  140   132    32 1
  141   133    31 1
  142   134    61 1
  143   135    56 1
  144   136    24 1
  145   137    24 1
  146   139   138 1
  147   140   139 1
  148   141   140 1
  149   142   140 1
  150   143   142 1
  151   144   138 1
  152   144   143 1
  153   145   144 1
  154   146   145 1
  155   147   146 1
  156   148   147 1
  157   149   148 1
  158   150   149 1
  159   151   150 1
  160   152   151 1
  161   153   152 1
  162   154   138 1
  163   155   138 1
  164   156   143 1
  165   157   147 1
  166   158   151 1
  167   160   159 1
  168   161   160 1
  169   162   161 1
  170   163   161 1
  171   164   163 1
  172   165   159 1
  173   165   164 1
  174   166   165 1
  175   167   166 1
  176   168   167 1
  177   169   168 1
  178   170   169 1
  179   171   170 1
  180   172   171 1
  181   173   172 1
  182   174   153 1
  183   174   173 1
  184   175   159 1
  185   176   159 1
  186   177   164 1
  187   178   168 1
  188   179   172 1
  189   180   179 1
  190   181   179 1
  191   182   179 1
  192   183   178 1
  193   184   178 1
  194   185   178 1
  195   186   177 1
  196   187   177 1
  197   188   177 1
  198   189   176 1
  199   190   176 1
  200   191   176 1
  201   192   175 1
  202   193   175 1
  203   194   175 1
  204   195   160 1
  205   196   160 1
  206   197   158 1
  207   198   158 1
  208   199   158 1
  209   200   157 1
  210   201   157 1
  211   202   157 1
  212   203   156 1
  213   204   156 1
  214   205   156 1
  215   206   155 1
  216   207   155 1
  217   208   155 1
  218   209   154 1
  219   210   154 1
  220   211   154 1
  221   212   141 1
  222   213   146 1
  223   214   145 1
  224   215   142 1
  225   216   142 1
  226   217   174 1
  227   218   173 1
  228   219   171 1
  229   220   170 1
  230   221   169 1
  231   222   140 1
  232   223   167 1
  233   224   166 1
  234   225   165 1
  235   226   163 1
  236   227   161 1
  237   228   139 1
  238   229   139 1
  239   230   153 1
  240   231   152 1
  241   232   150 1
  242   233   149 1
  243   234   148 1
  244   235   162 1
  245   65    153 1
  246   65    174 1
@<TRIPOS>SUBSTRUCTURE
      1 CLA               1 ****               0 ****  **** 
      2 LUT             138 ****               0 ****  **** 
