@<TRIPOS>MOLECULE
Cpptraj generated mol2 file.
  235   246     2     0     0
SMALL
USER_CHARGES


@<TRIPOS>ATOM
      1 CAA        80.6685   58.1627   34.2049 a2         1 CLA     -0.055900
      2 CAB        80.9740   61.9261   43.2273 c8         1 CLA     -0.148500
      3 CAC        73.8477   57.8070   42.9476 a2         1 CLA     -0.012600
      4 CAD        76.1417   55.9476   35.4429 ck         1 CLA      0.398800
      5 NA         79.6129   58.7135   37.5780 ns         1 CLA     -0.225500
      6 CBA        81.9448   57.8312   33.4000 a2         1 CLA     -0.135000
      7 CBB        82.1890   62.0002   43.8462 c0         1 CLA     -0.395200
      8 CBC        73.9961   56.3149   42.8985 a3         1 CLA     -0.037700
      9 CBD        77.6628   56.3665   35.1251 a1         1 CLA     -0.053900
     10 NB         79.5680   60.3235   40.2011 nm         1 CLA     -0.295700
     11 OBD        75.4830   55.2242   34.6847 o2         1 CLA     -0.494600
     12 CGA        82.1433   56.3601   33.2410 c4         1 CLA      0.827000
     13 CGD        78.2315   54.9558   35.1192 c4         1 CLA      0.655300
     14 ND         76.6841   58.0601   38.2779 nm         1 CLA     -0.291600
     15 CED        78.4630   52.9291   36.3857 a3         1 CLA      0.005400
     16 CHA        78.1678   57.2718   36.2527 cs         1 CLA     -0.123800
     17 CHB        81.3970   60.0010   38.6239 aa         1 CLA     -0.291900
     18 CHC        78.3476   60.4410   42.3941 aa         1 CLA     -0.090400
     19 CHD        74.7867   58.0210   39.8798 aa         1 CLA     -0.052000
     20 CMA        82.8798   57.5522   37.1502 a3         1 CLA     -0.230700
     21 CMB        83.1365   61.5871   40.6745 a3         1 CLA     -0.180800
     22 CMC        76.0551   59.8300   44.5326 a3         1 CLA     -0.134000
     23 CMD        73.4499   56.1949   37.5871 a3         1 CLA     -0.141100
     24 C1         82.7788   54.3097   34.4166 a2         1 CLA      0.023000
     25 C1A        79.3900   57.9459   36.4748 ac         1 CLA     -0.015100
     26 C1B        80.8923   60.5212   39.8109 cr         1 CLA      0.054700
     27 C1C        77.0457   59.9061   42.1469 cn         1 CLA     -0.005600
     28 C1D        75.4126   57.6484   38.6423 ap         1 CLA     -0.047300
     29 O1A        81.5540   55.6536   32.4288 o2         1 CLA     -0.610800
     30 O1D        78.8945   54.4791   34.1731 o2         1 CLA     -0.558200
     31 C2         83.5533   53.8967   35.6533 c8         1 CLA     -0.325100
     32 C2A        80.6936   57.7704   35.6921 a1         1 CLA      0.098600
     33 C2B        81.6383   61.2475   40.7913 cb         1 CLA      0.088500
     34 C2C        76.0749   59.4478   43.0772 cb         1 CLA      0.053700
     35 C2D        74.8223   56.7649   37.5754 cb         1 CLA      0.058900
     36 O2A        82.8038   55.7998   34.3757 o1         1 CLA     -0.437200
     37 O2D        77.9077   54.3065   36.2264 o1         1 CLA     -0.357600
     38 C3         84.7369   53.3169   35.5577 c5         1 CLA      0.031200
     39 C3A        81.7854   58.5464   36.6095 a1         1 CLA      0.166800
     40 C3B        80.7548   61.3429   41.9073 cb         1 CLA      0.035000
     41 C3C        75.1181   58.5769   42.3566 cb         1 CLA     -0.089900
     42 C3D        75.8020   56.6612   36.6356 cb         1 CLA     -0.035900
     43 C4         84.8759   51.8704   35.1761 a3         1 CLA     -0.053300
     44 C4A        80.8733   59.1341   37.6515 ac         1 CLA      0.001800
     45 C4B        79.4598   60.6365   41.5396 cn         1 CLA     -0.020900
     46 C4C        75.5569   58.5885   40.9796 cr         1 CLA     -0.044400
     47 C4D        76.9654   57.3547   37.1076 c6         1 CLA     -0.046000
     48 C5         86.0458   54.0394   35.9326 a2         1 CLA     -0.070400
     49 C6         86.0667   54.9194   37.2326 a2         1 CLA      0.043900
     50 C7         87.4195   55.6591   37.3848 a2         1 CLA     -0.150000
     51 C8         87.5994   56.4346   38.6702 a1         1 CLA      0.064200
     52 C9         86.7178   57.7391   38.5635 a3         1 CLA     -0.259300
     53 C10        89.0894   56.7765   38.8687 a2         1 CLA     -0.071900
     54 C11        89.4816   57.3826   40.2249 a2         1 CLA      0.014500
     55 C12        89.4492   56.3398   41.3261 a2         1 CLA     -0.112100
     56 C13        90.1549   56.6206   42.6620 a1         1 CLA      0.089200
     57 C14        90.2141   55.2846   43.5285 a3         1 CLA     -0.239100
     58 C15        89.5908   57.8632   43.3779 a2         1 CLA     -0.102200
     59 C16        88.1392   57.6464   43.9825 a2         1 CLA      0.023900
     60 C17        87.5368   58.9709   44.4806 a2         1 CLA     -0.105700
     61 C18        86.1201   58.8596   45.1895 a1         1 CLA      0.206800
     62 C19        86.3221   58.0770   46.4860 a3         1 CLA     -0.280100
     63 C20        85.4074   60.2533   45.4901 a3         1 CLA     -0.280100
     64 NC         76.7024   59.3439   40.9481 nx         1 CLA     -0.309200
     65 MG         78.0664   59.2567   39.2168 mg         1 CLA      0.895000
     66 HMD3       73.1221   55.7646   36.6060 dc         1 CLA      0.064300
     67 HMD2       73.3819   55.5042   38.4515 dc         1 CLA      0.064300
     68 HMD1       72.8448   57.0725   37.7975 dc         1 CLA      0.064300
     69 HMC3       77.0427   60.0933   44.9424 dc         1 CLA      0.052100
     70 HMC2       75.4397   60.6900   44.7378 dc         1 CLA      0.052100
     71 HMC1       75.7945   58.9129   45.1116 dc         1 CLA      0.052100
     72 HMB3       83.3579   61.7871   39.6176 dc         1 CLA      0.063600
     73 HMB2       83.4396   62.3645   41.3566 dc         1 CLA      0.063600
     74 HMB1       83.6743   60.6862   40.9825 dc         1 CLA      0.063600
     75 HMA3       83.5648   57.2119   36.3534 dc         1 CLA      0.058300
     76 HMA2       83.4978   58.0675   37.8454 dc         1 CLA      0.058300
     77 HMA1       82.3738   56.6686   37.5445 dc         1 CLA      0.058300
     78 HED3       78.8843   52.7918   37.3862 dc         1 CLA      0.079300
     79 HED2       77.7521   52.1095   36.2350 dc         1 CLA      0.079300
     80 HED1       79.2697   52.7632   35.7332 dc         1 CLA      0.079300
     81 HBC3       73.1700   55.7870   43.3460 dc         1 CLA      0.016300
     82 HBC2       74.1172   55.9724   41.9530 dc         1 CLA      0.016300
     83 HBC1       74.8960   56.1236   43.4728 dc         1 CLA      0.016300
     84 HBB2       82.3212   62.4941   44.7384 da         1 CLA      0.183000
     85 HBB1       83.0862   61.5064   43.5393 da         1 CLA      0.183000
     86 HBA2       81.8353   58.3180   32.4194 dc         1 CLA      0.029400
     87 HBA1       82.7943   58.3653   33.8730 dc         1 CLA      0.029400
     88 HAC2       73.6341   58.1045   43.9742 dc         1 CLA      0.029300
     89 HAC1       72.9539   58.1347   42.4240 dc         1 CLA      0.029300
     90 HAA2       79.8636   57.6621   33.8148 dc         1 CLA      0.028700
     91 HAA1       80.4627   59.1793   33.9475 dc         1 CLA      0.028700
     92 H203       85.8500   60.7260   46.3587 dc         1 CLA      0.065600
     93 H202       85.5409   60.8752   44.5973 dc         1 CLA      0.065600
     94 H201       84.3309   60.1999   45.5457 dc         1 CLA      0.065600
     95 H193       86.5316   57.0127   46.3676 dc         1 CLA      0.065600
     96 H192       87.1177   58.4694   47.1046 dc         1 CLA      0.065600
     97 H191       85.3937   58.2883   47.0504 dc         1 CLA      0.065600
     98 H172       88.2128   59.2114   45.2771 dc         1 CLA      0.027600
     99 H171       87.6421   59.7162   43.6722 dc         1 CLA      0.027600
    100 H162       87.6561   57.3907   43.0939 dc         1 CLA      0.002900
    101 H161       88.0321   56.8513   44.7342 dc         1 CLA      0.002900
    102 H152       90.1815   58.2654   44.1714 dc         1 CLA      0.029100
    103 H151       89.6141   58.6795   42.7085 dc         1 CLA      0.029100
    104 H143       90.4743   54.3899   42.9484 dc         1 CLA      0.063600
    105 H142       90.9079   55.4044   44.3627 dc         1 CLA      0.063600
    106 H141       89.2017   55.0919   43.9596 dc         1 CLA      0.063600
    107 H122       88.3985   56.2025   41.5376 dc         1 CLA      0.032500
    108 H121       89.6884   55.3385   40.9818 dc         1 CLA      0.032500
    109 H112       90.4888   57.6968   40.1174 dc         1 CLA      0.006600
    110 H111       88.7552   58.1801   40.5034 dc         1 CLA      0.006600
    111 H102       89.6359   55.8186   38.8060 dc         1 CLA      0.024100
    112 H101       89.2791   57.4525   38.0292 dc         1 CLA      0.024100
    113 HHD        73.7821   57.6377   40.1415 da         1 CLA      0.174300
    114 HHC        78.5273   60.7401   43.4600 da         1 CLA      0.136800
    115 HHB        82.4410   60.2250   38.3686 da         1 CLA      0.138300
    116 HBD        77.7672   56.9259   34.2282 dc         1 CLA      0.107700
    117 HAB        80.0501   62.4127   43.6870 da         1 CLA      0.155200
    118 H93        86.7295   58.2301   39.5461 dc         1 CLA      0.069500
    119 H92        87.0811   58.4991   37.8406 dc         1 CLA      0.069500
    120 H91        85.6775   57.6081   38.2375 dc         1 CLA      0.069500
    121 H8         87.1901   55.8116   39.4560 dc         1 CLA      0.029300
    122 H72        88.0247   54.7397   37.3792 dc         1 CLA      0.044400
    123 H71        87.6504   56.3142   36.5502 dc         1 CLA      0.044400
    124 H62        85.2925   55.6958   37.2175 dc         1 CLA      0.015600
    125 H61        85.8775   54.2414   38.0527 dc         1 CLA      0.015600
    126 H52        86.8521   53.2589   36.0813 dc         1 CLA      0.033200
    127 H51        86.1517   54.6799   35.1379 dc         1 CLA      0.033200
    128 H43        84.0542   51.2783   35.4626 dc         1 CLA      0.037000
    129 H42        84.8511   51.7770   34.0830 dc         1 CLA      0.037000
    130 H41        85.7865   51.4620   35.6592 dc         1 CLA      0.037000
    131 H3A        82.3102   59.3335   36.0793 dc         1 CLA      0.041100
    132 H2A        80.8103   56.6800   35.7342 dc         1 CLA      0.083100
    133 H2         82.7945   53.7412   36.4844 da         1 CLA      0.180900
    134 H18        85.5383   58.3233   44.4849 dc         1 CLA     -0.003900
    135 H13        91.1725   56.9352   42.4435 dc         1 CLA      0.019700
    136 H12        81.7222   53.9747   34.4935 dc         1 CLA      0.120400
    137 H11        83.2751   53.9777   33.4936 dc         1 CLA      0.120400
    138 C1         70.3476   61.3905   49.6620 Z1         2 LUT      0.509236
    139 C2         68.9620   61.3053   50.2886 Z2         2 LUT     -0.434695
    140 C3         68.2353   62.5891   50.6275 Z3         2 LUT      0.437453
    141 O3         68.6755   62.9615   51.9229 S1         2 LUT     -0.547129
    142 C4         68.6405   63.8250   49.7427 Z4         2 LUT     -0.468603
    143 C5         69.4520   63.5443   48.5520 Z5         2 LUT      0.279246
    144 C6         70.2601   62.4294   48.4455 Z6         2 LUT     -0.305473
    145 C7         70.6904   61.8035   47.1775 Z7         2 LUT      0.069402
    146 C8         71.5803   62.4967   46.3729 Z8         2 LUT     -0.191631
    147 C9         72.3266   62.0439   45.1052 Z9         2 LUT      0.196698
    148 C10        73.2728   62.9030   44.5009 Y1         2 LUT     -0.208611
    149 C11        74.0570   62.6407   43.2836 Y2         2 LUT      0.030784
    150 C12        75.2116   63.3367   43.0041 Y3         2 LUT     -0.220316
    151 C13        76.0786   63.1234   41.8723 Y4         2 LUT      0.215937
    152 C14        77.3685   63.6911   42.0455 Y5         2 LUT     -0.185793
    153 C15        78.5272   63.7225   41.1562 Y6         2 LUT     -0.057835
    154 C16        70.7536   59.9500   49.4384 Y7         2 LUT     -0.405615
    155 C17        71.3824   61.9960   50.7439 Y7         2 LUT     -0.405615
    156 C18        68.9022   64.3237   47.3908 Y9         2 LUT     -0.369639
    157 C19        71.8208   60.7977   44.4427 W1         2 LUT     -0.333362
    158 C20        75.5281   62.6114   40.6276 W2         2 LUT     -0.323439
    159 C21        89.2761   65.7658   34.7435 Z1         2 LUT      0.406104
    160 C22        90.1346   64.8981   33.7147 Z2         2 LUT     -0.404965
    161 C23        90.3518   65.5052   32.4395 Z3         2 LUT      0.391255
    162 O23        90.7111   64.4400   31.6363 S1         2 LUT     -0.528210
    163 C24        89.0631   66.1883   31.8113 W6         2 LUT     -0.258361
    164 C25        88.0893   66.6835   32.6030 Z5         2 LUT      0.133546
    165 C26        87.9181   66.0725   34.0333 W8         2 LUT     -0.147008
    166 C27        86.9191   66.7812   34.9742 Z7         2 LUT      0.023843
    167 C28        85.9341   66.2264   35.7219 Z8         2 LUT     -0.216987
    168 C29        85.3137   66.8496   36.8889 Z9         2 LUT      0.206524
    169 C30        84.3528   66.1365   37.5142 Y1         2 LUT     -0.215556
    170 C31        83.5685   66.3083   38.7427 Y2         2 LUT      0.025142
    171 C32        82.5275   65.5259   39.1021 Y3         2 LUT     -0.212209
    172 C33        81.6378   65.6452   40.3231 Y4         2 LUT      0.240937
    173 C34        80.6113   64.7250   40.2883 Y5         2 LUT     -0.218862
    174 C35        79.5622   64.5899   41.1551 Y6         2 LUT     -0.023547
    175 C36        90.0769   67.0537   35.1125 Y7         2 LUT     -0.393485
    176 C37        89.2735   64.7965   35.9552 Y7         2 LUT     -0.393485
    177 C38        86.9124   67.4030   32.0714 Y9         2 LUT     -0.387526
    178 C39        85.7802   68.1939   37.3224 W1         2 LUT     -0.322618
    179 C40        81.8043   66.8431   41.1915 W2         2 LUT     -0.358472
    180 H403       81.5242   67.6093   40.4869 R7         2 LUT      0.097720
    181 H402       81.1556   67.0232   42.0191 R7         2 LUT      0.097720
    182 H401       82.8404   67.0457   41.4722 R7         2 LUT      0.097720
    183 H393       85.0709   68.5359   38.0992 R4         2 LUT      0.082505
    184 H392       86.8340   68.2495   37.5761 R4         2 LUT      0.082505
    185 H391       85.7649   68.9053   36.4559 R4         2 LUT      0.082505
    186 H383       85.9724   66.8691   32.3704 R1         2 LUT      0.104030
    187 H382       86.9868   68.3903   32.5312 R1         2 LUT      0.104030
    188 H381       86.9892   67.6234   30.9800 R1         2 LUT      0.104030
    189 H373       90.3009   64.6345   36.3788 T4         2 LUT      0.089537
    190 H372       88.7339   65.1826   36.8270 T4         2 LUT      0.089537
    191 H371       88.7472   63.8855   35.7175 T4         2 LUT      0.089537
    192 H363       90.2414   67.6407   34.2222 T4         2 LUT      0.089537
    193 H362       89.4484   67.6889   35.7575 T4         2 LUT      0.089537
    194 H361       90.9713   66.8016   35.5772 T4         2 LUT      0.089537
    195 H222       91.1909   64.7011   34.1270 U2         2 LUT      0.127376
    196 H221       89.4670   64.0606   33.5435 U2         2 LUT      0.127376
    197 H203       74.5044   62.9549   40.3575 R7         2 LUT      0.087068
    198 H202       76.0514   63.0824   39.7744 R7         2 LUT      0.087068
    199 H201       75.4100   61.5669   40.5546 R7         2 LUT      0.087068
    200 H193       72.3606   59.9508   44.8036 R4         2 LUT      0.089716
    201 H192       70.8575   60.6409   44.8314 R4         2 LUT      0.089716
    202 H191       71.8233   60.8934   43.3382 R4         2 LUT      0.089716
    203 H183       69.4829   64.0835   46.5215 R1         2 LUT      0.094572
    204 H182       67.8359   63.8701   47.1901 R1         2 LUT      0.094572
    205 H181       68.8828   65.3740   47.6530 R1         2 LUT      0.094572
    206 H173       71.2974   61.5726   51.7235 T4         2 LUT      0.093752
    207 H172       72.3978   61.7437   50.4449 T4         2 LUT      0.093752
    208 H171       71.2709   63.1215   50.6986 T4         2 LUT      0.093752
    209 H163       71.6863   59.9277   48.8491 T4         2 LUT      0.093752
    210 H162       70.9898   59.5437   50.4454 T4         2 LUT      0.093752
    211 H161       70.0290   59.3425   48.8693 T4         2 LUT      0.093752
    212 HO3        67.9806   62.7974   52.5990 Q1         2 LUT      0.300121
    213 H8         71.8404   63.5382   46.6224 U7         2 LUT      0.080784
    214 H7         70.4951   60.7214   46.9273 U6         2 LUT      0.042190
    215 H42        67.8066   64.4145   49.3763 U5         2 LUT      0.145166
    216 H41        69.1707   64.5678   50.3945 U5         2 LUT      0.145166
    217 H35        79.4919   65.2688   41.9761 T3         2 LUT      0.077919
    218 H34        80.5500   64.1201   39.3775 T2         2 LUT      0.073626
    219 H32        82.3243   64.6043   38.5277 T1         2 LUT      0.092510
    220 H31        83.8859   67.1536   39.3235 U9         2 LUT      0.070048
    221 H30        83.9701   65.1790   37.0775 U8         2 LUT      0.085442
    222 H3         67.1656   62.4026   50.4626 U3         2 LUT     -0.031596
    223 H28        85.6653   65.2201   35.4203 U7         2 LUT      0.084728
    224 H27        87.2830   67.7880   35.1768 U6         2 LUT      0.087291
    225 H26        87.4316   65.1158   33.8751 Q6         2 LUT      0.075325
    226 H24        89.1237   66.4875   30.7535 Q5         2 LUT      0.094482
    227 H23        91.2404   66.2281   32.4905 U3         2 LUT     -0.024869
    228 H22        68.2964   60.8820   49.5446 U2         2 LUT      0.127376
    229 H21        69.0776   60.6441   51.1291 U2         2 LUT      0.127376
    230 H15        78.3635   62.9877   40.3790 T3         2 LUT      0.093200
    231 H14        77.5614   64.1256   43.0326 T2         2 LUT      0.068865
    232 H12        75.5897   63.9492   43.8261 T1         2 LUT      0.095507
    233 H11        73.7880   61.8910   42.5553 U9         2 LUT      0.068930
    234 H10        73.5843   63.8211   45.0578 U8         2 LUT      0.083911
    235 H1         91.1991   64.7476   30.7864 Q1         2 LUT      0.297311
@<TRIPOS>BOND
    1     6     1 1
    2     7     2 1
    3     8     3 1
    4     9     4 1
    5    11     4 1
    6    12     6 1
    7    13     9 1
    8    16     9 1
    9    25     5 1
   10    25    16 1
   11    26    10 1
   12    26    17 1
   13    27    18 1
   14    28    14 1
   15    28    19 1
   16    29    12 1
   17    30    13 1
   18    31    24 1
   19    32     1 1
   20    32    25 1
   21    33    21 1
   22    33    26 1
   23    34    22 1
   24    34    27 1
   25    35    23 1
   26    35    28 1
   27    36    12 1
   28    36    24 1
   29    37    13 1
   30    37    15 1
   31    38    31 1
   32    39    20 1
   33    39    32 1
   34    40     2 1
   35    40    33 1
   36    41     3 1
   37    41    34 1
   38    42     4 1
   39    42    35 1
   40    43    38 1
   41    44     5 1
   42    44    17 1
   43    44    39 1
   44    45    10 1
   45    45    18 1
   46    45    40 1
   47    46    19 1
   48    46    41 1
   49    47    14 1
   50    47    16 1
   51    47    42 1
   52    48    38 1
   53    49    48 1
   54    50    49 1
   55    51    50 1
   56    52    51 1
   57    53    51 1
   58    54    53 1
   59    55    54 1
   60    56    55 1
   61    57    56 1
   62    58    56 1
   63    59    58 1
   64    60    59 1
   65    61    60 1
   66    62    61 1
   67    63    61 1
   68    64    27 1
   69    64    46 1
   70    65     5 1
   71    65    10 1
   72    65    64 1
   73    65    14 1
   74    66    23 1
   75    67    23 1
   76    68    23 1
   77    69    22 1
   78    70    22 1
   79    71    22 1
   80    72    21 1
   81    73    21 1
   82    74    21 1
   83    75    20 1
   84    76    20 1
   85    77    20 1
   86    78    15 1
   87    79    15 1
   88    80    15 1
   89    81     8 1
   90    82     8 1
   91    83     8 1
   92    84     7 1
   93    85     7 1
   94    86     6 1
   95    87     6 1
   96    88     3 1
   97    89     3 1
   98    90     1 1
   99    91     1 1
  100    92    63 1
  101    93    63 1
  102    94    63 1
  103    95    62 1
  104    96    62 1
  105    97    62 1
  106    98    60 1
  107    99    60 1
  108   100    59 1
  109   101    59 1
  110   102    58 1
  111   103    58 1
  112   104    57 1
  113   105    57 1
  114   106    57 1
  115   107    55 1
  116   108    55 1
  117   109    54 1
  118   110    54 1
  119   111    53 1
  120   112    53 1
  121   113    19 1
  122   114    18 1
  123   115    17 1
  124   116     9 1
  125   117     2 1
  126   118    52 1
  127   119    52 1
  128   120    52 1
  129   121    51 1
  130   122    50 1
  131   123    50 1
  132   124    49 1
  133   125    49 1
  134   126    48 1
  135   127    48 1
  136   128    43 1
  137   129    43 1
  138   130    43 1
  139   131    39 1
  140   132    32 1
  141   133    31 1
  142   134    61 1
  143   135    56 1
  144   136    24 1
  145   137    24 1
  146   139   138 1
  147   140   139 1
  148   141   140 1
  149   142   140 1
  150   143   142 1
  151   144   138 1
  152   144   143 1
  153   145   144 1
  154   146   145 1
  155   147   146 1
  156   148   147 1
  157   149   148 1
  158   150   149 1
  159   151   150 1
  160   152   151 1
  161   153   152 1
  162   154   138 1
  163   155   138 1
  164   156   143 1
  165   157   147 1
  166   158   151 1
  167   160   159 1
  168   161   160 1
  169   162   161 1
  170   163   161 1
  171   164   163 1
  172   165   159 1
  173   165   164 1
  174   166   165 1
  175   167   166 1
  176   168   167 1
  177   169   168 1
  178   170   169 1
  179   171   170 1
  180   172   171 1
  181   173   172 1
  182   174   153 1
  183   174   173 1
  184   175   159 1
  185   176   159 1
  186   177   164 1
  187   178   168 1
  188   179   172 1
  189   180   179 1
  190   181   179 1
  191   182   179 1
  192   183   178 1
  193   184   178 1
  194   185   178 1
  195   186   177 1
  196   187   177 1
  197   188   177 1
  198   189   176 1
  199   190   176 1
  200   191   176 1
  201   192   175 1
  202   193   175 1
  203   194   175 1
  204   195   160 1
  205   196   160 1
  206   197   158 1
  207   198   158 1
  208   199   158 1
  209   200   157 1
  210   201   157 1
  211   202   157 1
  212   203   156 1
  213   204   156 1
  214   205   156 1
  215   206   155 1
  216   207   155 1
  217   208   155 1
  218   209   154 1
  219   210   154 1
  220   211   154 1
  221   212   141 1
  222   213   146 1
  223   214   145 1
  224   215   142 1
  225   216   142 1
  226   217   174 1
  227   218   173 1
  228   219   171 1
  229   220   170 1
  230   221   169 1
  231   222   140 1
  232   223   167 1
  233   224   166 1
  234   225   165 1
  235   226   163 1
  236   227   161 1
  237   228   139 1
  238   229   139 1
  239   230   153 1
  240   231   152 1
  241   232   150 1
  242   233   149 1
  243   234   148 1
  244   235   162 1
  245   65    153 1
  246   65    174 1
@<TRIPOS>SUBSTRUCTURE
      1 CLA               1 ****               0 ****  **** 
      2 LUT             138 ****               0 ****  **** 
