@<TRIPOS>MOLECULE
Cpptraj generated mol2 file.
  235   246     2     0     0
SMALL
USER_CHARGES


@<TRIPOS>ATOM
      1 CAA        79.7912   58.1763   35.2126 a2         1 CLA     -0.055900
      2 CAB        80.1387   62.0692   43.9565 c8         1 CLA     -0.148500
      3 CAC        73.0394   58.7681   43.5902 a2         1 CLA     -0.012600
      4 CAD        75.5369   55.8686   36.3049 ck         1 CLA      0.398800
      5 NA         78.8556   58.5387   38.5809 ns         1 CLA     -0.225500
      6 CBA        81.0166   57.9575   34.3374 a2         1 CLA     -0.135000
      7 CBB        81.3309   62.2711   44.5711 c0         1 CLA     -0.395200
      8 CBC        73.1463   57.3762   44.0698 a3         1 CLA     -0.037700
      9 CBD        77.0834   56.2590   36.0148 a1         1 CLA     -0.053900
     10 NB         78.7840   60.3023   40.9033 nm         1 CLA     -0.295700
     11 OBD        74.8216   55.1316   35.5858 o2         1 CLA     -0.494600
     12 CGA        81.2957   56.4828   33.9645 c4         1 CLA      0.827000
     13 CGD        77.9963   55.1049   35.8394 c4         1 CLA      0.655300
     14 ND         75.9772   58.0388   38.9919 nm         1 CLA     -0.291600
     15 CED        78.9921   53.2566   37.0606 a3         1 CLA      0.005400
     16 CHA        77.4496   57.2055   37.1329 cs         1 CLA     -0.123800
     17 CHB        80.7003   59.8350   39.5347 aa         1 CLA     -0.291900
     18 CHC        77.5153   60.7765   42.9660 aa         1 CLA     -0.090400
     19 CHD        74.1238   58.1536   40.5954 aa         1 CLA     -0.052000
     20 CMA        82.0732   57.3856   38.0387 a3         1 CLA     -0.230700
     21 CMB        82.2168   61.6776   41.5281 a3         1 CLA     -0.180800
     22 CMC        75.2994   60.6313   44.9565 a3         1 CLA     -0.134000
     23 CMD        72.6924   56.2719   38.4804 a3         1 CLA     -0.141100
     24 C1         82.5990   54.6071   34.6764 a2         1 CLA      0.023000
     25 C1A        78.6652   57.8296   37.4564 ac         1 CLA     -0.015100
     26 C1B        80.0819   60.4811   40.5572 cr         1 CLA      0.054700
     27 C1C        76.3390   60.1856   42.6958 cn         1 CLA     -0.005600
     28 C1D        74.7014   57.6663   39.3791 ap         1 CLA     -0.047300
     29 O1A        80.9348   55.9437   32.9576 o2         1 CLA     -0.610800
     30 O1D        78.8127   54.9496   34.8977 o2         1 CLA     -0.558200
     31 C2         83.1393   54.1692   36.0612 c8         1 CLA     -0.325100
     32 C2A        79.9544   57.6504   36.6892 a1         1 CLA      0.098600
     33 C2B        80.7734   61.2126   41.6332 cb         1 CLA      0.088500
     34 C2C        75.2715   60.0191   43.5810 cb         1 CLA      0.053700
     35 C2D        74.1136   56.7684   38.4046 cb         1 CLA      0.058900
     36 O2A        82.1175   55.9426   34.9315 o1         1 CLA     -0.437200
     37 O2D        77.9387   54.2708   36.9411 o1         1 CLA     -0.357600
     38 C3         84.3075   53.5907   36.3197 c5         1 CLA      0.031200
     39 C3A        81.0256   58.3260   37.4907 a1         1 CLA      0.166800
     40 C3B        79.9116   61.4113   42.6252 cb         1 CLA      0.035000
     41 C3C        74.2945   59.2241   42.9024 cb         1 CLA     -0.089900
     42 C3D        75.1647   56.4843   37.5037 cb         1 CLA     -0.035900
     43 C4         84.5958   52.0758   36.3838 a3         1 CLA     -0.053300
     44 C4A        80.1614   59.0013   38.6048 ac         1 CLA      0.001800
     45 C4B        78.6786   60.8616   42.1820 cn         1 CLA     -0.020900
     46 C4C        74.7551   58.9505   41.5571 cr         1 CLA     -0.044400
     47 C4D        76.2962   57.2696   37.9380 c6         1 CLA     -0.046000
     48 C5         85.5116   54.5250   36.5766 a2         1 CLA     -0.070400
     49 C6         85.4937   55.1314   37.9604 a2         1 CLA      0.043900
     50 C7         86.1929   56.4258   38.1526 a2         1 CLA     -0.150000
     51 C8         87.7224   56.5013   38.5645 a1         1 CLA      0.064200
     52 C9         88.5268   55.6432   37.6212 a3         1 CLA     -0.259300
     53 C10        88.0662   56.2123   40.0092 a2         1 CLA     -0.071900
     54 C11        87.5781   57.1213   41.2067 a2         1 CLA      0.014500
     55 C12        88.2143   56.6622   42.5275 a2         1 CLA     -0.112100
     56 C13        88.3484   57.6978   43.7014 a1         1 CLA      0.089200
     57 C14        89.0792   57.1093   44.9477 a3         1 CLA     -0.239100
     58 C15        87.0889   58.4959   44.0600 a2         1 CLA     -0.102200
     59 C16        86.9244   58.9113   45.5196 a2         1 CLA      0.023900
     60 C17        85.6884   59.8028   45.6348 a2         1 CLA     -0.105700
     61 C18        85.1999   60.0439   47.1206 a1         1 CLA      0.206800
     62 C19        86.3628   60.6402   47.9601 a3         1 CLA     -0.280100
     63 C20        83.9281   60.9201   47.2786 a3         1 CLA     -0.280100
     64 NC         75.9935   59.4744   41.4659 nx         1 CLA     -0.309200
     65 MG         77.3932   59.0916   39.9941 mg         1 CLA      0.895000
     66 HMD3       72.7539   55.8184   39.4610 dc         1 CLA      0.064300
     67 HMD2       72.0063   57.1185   38.6344 dc         1 CLA      0.064300
     68 HMD1       72.3744   55.6474   37.6089 dc         1 CLA      0.064300
     69 HMC3       75.6339   61.6695   44.9053 dc         1 CLA      0.052100
     70 HMC2       74.3118   60.6272   45.3875 dc         1 CLA      0.052100
     71 HMC1       75.9337   60.0318   45.6451 dc         1 CLA      0.052100
     72 HMB3       82.3063   62.6512   42.0406 dc         1 CLA      0.063600
     73 HMB2       82.9369   60.9413   41.8907 dc         1 CLA      0.063600
     74 HMB1       82.4747   61.7905   40.4912 dc         1 CLA      0.063600
     75 HMA3       82.6073   57.8239   38.8712 dc         1 CLA      0.058300
     76 HMA2       81.4170   56.6388   38.4307 dc         1 CLA      0.058300
     77 HMA1       82.8860   56.9883   37.4566 dc         1 CLA      0.058300
     78 HED3       78.9715   52.8356   38.0415 dc         1 CLA      0.079300
     79 HED2       78.7049   52.4292   36.4269 dc         1 CLA      0.079300
     80 HED1       79.9796   53.5562   36.8063 dc         1 CLA      0.079300
     81 HBC3       74.0415   57.0969   44.6713 dc         1 CLA      0.016300
     82 HBC2       72.2425   57.0891   44.5756 dc         1 CLA      0.016300
     83 HBC1       73.1202   56.7013   43.1915 dc         1 CLA      0.016300
     84 HBB2       81.2241   62.7903   45.5467 da         1 CLA      0.183000
     85 HBB1       82.3528   61.9724   44.1721 da         1 CLA      0.183000
     86 HBA2       80.9620   58.4673   33.3912 dc         1 CLA      0.029400
     87 HBA1       81.8484   58.4711   34.8388 dc         1 CLA      0.029400
     88 HAC2       72.9132   59.3301   44.5247 dc         1 CLA      0.029300
     89 HAC1       72.0732   58.9224   43.0186 dc         1 CLA      0.029300
     90 HAA2       78.9746   57.7395   34.7125 dc         1 CLA      0.028700
     91 HAA1       79.6010   59.1933   35.2286 dc         1 CLA      0.028700
     92 H203       83.5233   60.8348   48.3156 dc         1 CLA      0.065600
     93 H202       84.1702   62.0261   47.1686 dc         1 CLA      0.065600
     94 H201       83.1307   60.4900   46.6523 dc         1 CLA      0.065600
     95 H193       86.6774   61.6119   47.5850 dc         1 CLA      0.065600
     96 H192       86.0193   60.8254   48.9643 dc         1 CLA      0.065600
     97 H191       87.2453   59.9793   48.0791 dc         1 CLA      0.065600
     98 H172       85.8150   60.7226   45.1447 dc         1 CLA      0.027600
     99 H171       84.8541   59.3166   45.1599 dc         1 CLA      0.027600
    100 H162       86.7585   58.2194   46.3513 dc         1 CLA      0.002900
    101 H161       87.8444   59.4192   45.8708 dc         1 CLA      0.002900
    102 H152       86.7825   59.2426   43.3104 dc         1 CLA      0.029100
    103 H151       86.3221   57.7513   43.9127 dc         1 CLA      0.029100
    104 H143       89.9266   56.5255   44.5968 dc         1 CLA      0.063600
    105 H142       89.4214   57.9520   45.5516 dc         1 CLA      0.063600
    106 H141       88.3939   56.4957   45.5718 dc         1 CLA      0.063600
    107 H122       87.5390   55.9385   42.8323 dc         1 CLA      0.032500
    108 H121       89.1694   56.0999   42.2833 dc         1 CLA      0.032500
    109 H112       87.9499   58.1378   40.9394 dc         1 CLA      0.006600
    110 H111       86.4811   57.0091   41.2884 dc         1 CLA      0.006600
    111 H102       87.6109   55.2445   40.1374 dc         1 CLA      0.024100
    112 H101       89.1689   56.1834   40.0656 dc         1 CLA      0.024100
    113 HHD        73.1140   57.8251   40.7904 da         1 CLA      0.174300
    114 HHC        77.5813   61.2268   43.9348 da         1 CLA      0.136800
    115 HHB        81.7237   60.1105   39.3065 da         1 CLA      0.138300
    116 HBD        77.0412   56.8670   35.0816 dc         1 CLA      0.107700
    117 HAB        79.3128   62.3669   44.5374 da         1 CLA      0.155200
    118 H93        88.3288   54.5722   37.8092 dc         1 CLA      0.069500
    119 H92        88.0355   55.7921   36.6024 dc         1 CLA      0.069500
    120 H91        89.5286   55.9823   37.5694 dc         1 CLA      0.069500
    121 H8         87.9352   57.5862   38.5633 dc         1 CLA      0.029300
    122 H72        86.1419   57.0033   37.2281 dc         1 CLA      0.044400
    123 H71        85.6310   57.0773   38.8574 dc         1 CLA      0.044400
    124 H62        84.4839   55.3937   38.1734 dc         1 CLA      0.015600
    125 H61        85.7882   54.4403   38.7610 dc         1 CLA      0.015600
    126 H52        86.4953   54.1405   36.4352 dc         1 CLA      0.033200
    127 H51        85.3962   55.3852   35.9327 dc         1 CLA      0.033200
    128 H43        85.1534   51.8739   37.3187 dc         1 CLA      0.037000
    129 H42        83.6602   51.5448   36.4673 dc         1 CLA      0.037000
    130 H41        85.1394   51.8549   35.4504 dc         1 CLA      0.037000
    131 H3A        81.4142   59.2686   37.0129 dc         1 CLA      0.041100
    132 H2A        80.0853   56.5969   36.4941 dc         1 CLA      0.083100
    133 H2         82.5976   54.3278   36.9454 da         1 CLA      0.180900
    134 H18        85.0210   59.0224   47.4653 dc         1 CLA     -0.003900
    135 H13        89.0669   58.4775   43.4898 dc         1 CLA      0.019700
    136 H12        81.8332   53.8588   34.3591 dc         1 CLA      0.120400
    137 H11        83.4278   54.5275   34.0230 dc         1 CLA      0.120400
    138 C1         70.2603   62.0141   50.9280 Z1         2 LUT      0.509236
    139 C2         68.9144   61.5606   51.4566 Z2         2 LUT     -0.434695
    140 C3         67.9261   62.7573   51.8429 Z3         2 LUT      0.437453
    141 O3         68.1229   63.1711   53.2519 S1         2 LUT     -0.547129
    142 C4         67.9775   63.8684   50.8022 Z4         2 LUT     -0.468603
    143 C5         68.8570   63.6949   49.6020 Z5         2 LUT      0.279246
    144 C6         69.8672   62.8556   49.6827 Z6         2 LUT     -0.305473
    145 C7         70.4004   62.3112   48.4179 Z7         2 LUT      0.069402
    146 C8         71.3443   62.7917   47.5361 Z8         2 LUT     -0.191631
    147 C9         71.6613   62.3103   46.2060 Z9         2 LUT      0.196698
    148 C10        72.4692   63.1702   45.4332 Y1         2 LUT     -0.208611
    149 C11        73.0918   63.0165   44.1545 Y2         2 LUT      0.030784
    150 C12        74.2801   63.5513   43.7824 Y3         2 LUT     -0.220316
    151 C13        74.9719   63.4999   42.5226 Y4         2 LUT      0.215937
    152 C14        76.1948   64.1744   42.3786 Y5         2 LUT     -0.185793
    153 C15        77.2591   64.0806   41.3768 Y6         2 LUT     -0.057835
    154 C16        71.0521   60.6878   50.8595 Y7         2 LUT     -0.405615
    155 C17        70.9024   62.8811   52.0579 Y7         2 LUT     -0.405615
    156 C18        68.1477   64.2236   48.3571 Y9         2 LUT     -0.369639
    157 C19        71.0291   61.0469   45.6464 W1         2 LUT     -0.333362
    158 C20        74.3609   62.7344   41.4045 W2         2 LUT     -0.323439
    159 C21        88.7187   65.3306   35.5261 Z1         2 LUT      0.406104
    160 C22        89.2827   64.4138   34.3986 Z2         2 LUT     -0.404965
    161 C23        89.4611   65.0974   33.0486 Z3         2 LUT      0.391255
    162 O23        89.7037   63.9597   32.2108 S1         2 LUT     -0.528210
    163 C24        88.2834   65.9586   32.7625 W6         2 LUT     -0.258361
    164 C25        87.3728   66.3541   33.6458 Z5         2 LUT      0.133546
    165 C26        87.3368   65.7689   35.0395 W8         2 LUT     -0.147008
    166 C27        86.5284   66.6336   36.0537 Z7         2 LUT      0.023843
    167 C28        85.4025   66.2158   36.6431 Z8         2 LUT     -0.216987
    168 C29        84.8252   66.4816   37.9886 Z9         2 LUT      0.206524
    169 C30        83.7003   65.7790   38.3828 Y1         2 LUT     -0.215556
    170 C31        82.9659   65.9247   39.6658 Y2         2 LUT      0.025142
    171 C32        81.7698   65.2946   39.8892 Y3         2 LUT     -0.212209
    172 C33        80.7986   65.2506   40.9623 Y4         2 LUT      0.240937
    173 C34        79.6125   64.7020   40.6752 Y5         2 LUT     -0.218862
    174 C35        78.4881   64.6251   41.5772 Y6         2 LUT     -0.023547
    175 C36        89.7492   66.5075   35.7143 Y7         2 LUT     -0.393485
    176 C37        88.7479   64.5456   36.9092 Y7         2 LUT     -0.393485
    177 C38        86.1331   67.0897   33.1439 Y9         2 LUT     -0.387526
    178 C39        85.4562   67.5860   38.8344 W1         2 LUT     -0.322618
    179 C40        81.1981   66.0037   42.2258 W2         2 LUT     -0.358472
    180 H403       80.6329   65.7489   43.0947 R7         2 LUT      0.097720
    181 H402       82.1962   65.8787   42.5226 R7         2 LUT      0.097720
    182 H401       81.0427   67.0885   42.0701 R7         2 LUT      0.097720
    183 H393       86.5355   67.7019   38.7413 R4         2 LUT      0.082505
    184 H392       84.9919   68.5067   38.5007 R4         2 LUT      0.082505
    185 H391       85.3258   67.3686   39.8724 R4         2 LUT      0.082505
    186 H383       85.2011   66.5362   33.2493 R1         2 LUT      0.104030
    187 H382       86.0514   67.9616   33.8417 R1         2 LUT      0.104030
    188 H381       86.2512   67.4902   32.1014 R1         2 LUT      0.104030
    189 H373       87.8741   63.9660   37.1168 T4         2 LUT      0.089537
    190 H372       89.6451   63.8362   36.9649 T4         2 LUT      0.089537
    191 H371       88.8781   65.1562   37.8397 T4         2 LUT      0.089537
    192 H363       90.7574   66.2088   36.0749 T4         2 LUT      0.089537
    193 H362       89.8597   66.9937   34.7541 T4         2 LUT      0.089537
    194 H361       89.3645   67.1761   36.4848 T4         2 LUT      0.089537
    195 H222       90.3248   64.0646   34.7286 U2         2 LUT      0.127376
    196 H221       88.5960   63.6384   34.2293 U2         2 LUT      0.127376
    197 H203       73.9167   61.7419   41.5678 R7         2 LUT      0.087068
    198 H202       73.5058   63.1868   41.0863 R7         2 LUT      0.087068
    199 H201       75.1329   62.6278   40.6165 R7         2 LUT      0.087068
    200 H193       71.3118   60.2621   46.3800 R4         2 LUT      0.089716
    201 H192       69.9062   61.1014   45.6369 R4         2 LUT      0.089716
    202 H191       71.3834   60.7497   44.6192 R4         2 LUT      0.089716
    203 H183       68.4845   65.2385   48.4906 R1         2 LUT      0.094572
    204 H182       68.6106   63.7943   47.4039 R1         2 LUT      0.094572
    205 H181       67.0823   64.0254   48.3279 R1         2 LUT      0.094572
    206 H173       70.3349   63.8383   52.2537 T4         2 LUT      0.093752
    207 H172       70.9625   62.4246   53.0403 T4         2 LUT      0.093752
    208 H171       71.9338   62.9916   51.8067 T4         2 LUT      0.093752
    209 H163       72.0900   60.7321   50.7334 T4         2 LUT      0.093752
    210 H162       70.9299   60.1887   51.8319 T4         2 LUT      0.093752
    211 H161       70.5107   59.9616   50.1633 T4         2 LUT      0.093752
    212 HO3        68.0615   62.4431   53.8393 Q1         2 LUT      0.300121
    213 H8         71.7676   63.7297   47.7831 U7         2 LUT      0.080784
    214 H7         69.8269   61.4520   48.0500 U6         2 LUT      0.042190
    215 H42        66.9502   64.0626   50.4818 U5         2 LUT      0.145166
    216 H41        68.2577   64.7817   51.3897 U5         2 LUT      0.145166
    217 H35        78.5630   65.1099   42.5535 T3         2 LUT      0.077919
    218 H34        79.5247   64.3314   39.6691 T2         2 LUT      0.073626
    219 H32        81.4045   64.7822   39.0268 T1         2 LUT      0.092510
    220 H31        83.3953   66.4588   40.4906 U9         2 LUT      0.070048
    221 H30        83.2651   65.0359   37.6762 U8         2 LUT      0.085442
    222 H3         66.9614   62.3263   51.9147 U3         2 LUT     -0.031596
    223 H28        84.8215   65.4739   36.0456 U7         2 LUT      0.084728
    224 H27        87.1396   67.3261   36.6485 U6         2 LUT      0.087291
    225 H26        86.7874   64.8194   34.9933 Q6         2 LUT      0.075325
    226 H24        88.2715   66.3655   31.7577 Q5         2 LUT      0.094482
    227 H23        90.2968   65.7483   33.0671 U3         2 LUT     -0.024869
    228 H22        68.4916   61.0082   50.6499 U2         2 LUT      0.127376
    229 H21        68.9677   60.8706   52.2574 U2         2 LUT      0.127376
    230 H15        77.1114   63.5727   40.4168 T3         2 LUT      0.093200
    231 H14        76.3911   64.7751   43.2162 T2         2 LUT      0.068865
    232 H12        74.7190   64.1733   44.5208 T1         2 LUT      0.095507
    233 H11        72.5294   62.3775   43.5341 U9         2 LUT      0.068930
    234 H10        72.9293   63.9765   45.9402 U8         2 LUT      0.083911
    235 H1         90.0476   64.3900   31.4009 Q1         2 LUT      0.297311
@<TRIPOS>BOND
    1     6     1 1
    2     7     2 1
    3     8     3 1
    4     9     4 1
    5    11     4 1
    6    12     6 1
    7    13     9 1
    8    16     9 1
    9    25     5 1
   10    25    16 1
   11    26    10 1
   12    26    17 1
   13    27    18 1
   14    28    14 1
   15    28    19 1
   16    29    12 1
   17    30    13 1
   18    31    24 1
   19    32     1 1
   20    32    25 1
   21    33    21 1
   22    33    26 1
   23    34    22 1
   24    34    27 1
   25    35    23 1
   26    35    28 1
   27    36    12 1
   28    36    24 1
   29    37    13 1
   30    37    15 1
   31    38    31 1
   32    39    20 1
   33    39    32 1
   34    40     2 1
   35    40    33 1
   36    41     3 1
   37    41    34 1
   38    42     4 1
   39    42    35 1
   40    43    38 1
   41    44     5 1
   42    44    17 1
   43    44    39 1
   44    45    10 1
   45    45    18 1
   46    45    40 1
   47    46    19 1
   48    46    41 1
   49    47    14 1
   50    47    16 1
   51    47    42 1
   52    48    38 1
   53    49    48 1
   54    50    49 1
   55    51    50 1
   56    52    51 1
   57    53    51 1
   58    54    53 1
   59    55    54 1
   60    56    55 1
   61    57    56 1
   62    58    56 1
   63    59    58 1
   64    60    59 1
   65    61    60 1
   66    62    61 1
   67    63    61 1
   68    64    27 1
   69    64    46 1
   70    65     5 1
   71    65    10 1
   72    65    64 1
   73    65    14 1
   74    66    23 1
   75    67    23 1
   76    68    23 1
   77    69    22 1
   78    70    22 1
   79    71    22 1
   80    72    21 1
   81    73    21 1
   82    74    21 1
   83    75    20 1
   84    76    20 1
   85    77    20 1
   86    78    15 1
   87    79    15 1
   88    80    15 1
   89    81     8 1
   90    82     8 1
   91    83     8 1
   92    84     7 1
   93    85     7 1
   94    86     6 1
   95    87     6 1
   96    88     3 1
   97    89     3 1
   98    90     1 1
   99    91     1 1
  100    92    63 1
  101    93    63 1
  102    94    63 1
  103    95    62 1
  104    96    62 1
  105    97    62 1
  106    98    60 1
  107    99    60 1
  108   100    59 1
  109   101    59 1
  110   102    58 1
  111   103    58 1
  112   104    57 1
  113   105    57 1
  114   106    57 1
  115   107    55 1
  116   108    55 1
  117   109    54 1
  118   110    54 1
  119   111    53 1
  120   112    53 1
  121   113    19 1
  122   114    18 1
  123   115    17 1
  124   116     9 1
  125   117     2 1
  126   118    52 1
  127   119    52 1
  128   120    52 1
  129   121    51 1
  130   122    50 1
  131   123    50 1
  132   124    49 1
  133   125    49 1
  134   126    48 1
  135   127    48 1
  136   128    43 1
  137   129    43 1
  138   130    43 1
  139   131    39 1
  140   132    32 1
  141   133    31 1
  142   134    61 1
  143   135    56 1
  144   136    24 1
  145   137    24 1
  146   139   138 1
  147   140   139 1
  148   141   140 1
  149   142   140 1
  150   143   142 1
  151   144   138 1
  152   144   143 1
  153   145   144 1
  154   146   145 1
  155   147   146 1
  156   148   147 1
  157   149   148 1
  158   150   149 1
  159   151   150 1
  160   152   151 1
  161   153   152 1
  162   154   138 1
  163   155   138 1
  164   156   143 1
  165   157   147 1
  166   158   151 1
  167   160   159 1
  168   161   160 1
  169   162   161 1
  170   163   161 1
  171   164   163 1
  172   165   159 1
  173   165   164 1
  174   166   165 1
  175   167   166 1
  176   168   167 1
  177   169   168 1
  178   170   169 1
  179   171   170 1
  180   172   171 1
  181   173   172 1
  182   174   153 1
  183   174   173 1
  184   175   159 1
  185   176   159 1
  186   177   164 1
  187   178   168 1
  188   179   172 1
  189   180   179 1
  190   181   179 1
  191   182   179 1
  192   183   178 1
  193   184   178 1
  194   185   178 1
  195   186   177 1
  196   187   177 1
  197   188   177 1
  198   189   176 1
  199   190   176 1
  200   191   176 1
  201   192   175 1
  202   193   175 1
  203   194   175 1
  204   195   160 1
  205   196   160 1
  206   197   158 1
  207   198   158 1
  208   199   158 1
  209   200   157 1
  210   201   157 1
  211   202   157 1
  212   203   156 1
  213   204   156 1
  214   205   156 1
  215   206   155 1
  216   207   155 1
  217   208   155 1
  218   209   154 1
  219   210   154 1
  220   211   154 1
  221   212   141 1
  222   213   146 1
  223   214   145 1
  224   215   142 1
  225   216   142 1
  226   217   174 1
  227   218   173 1
  228   219   171 1
  229   220   170 1
  230   221   169 1
  231   222   140 1
  232   223   167 1
  233   224   166 1
  234   225   165 1
  235   226   163 1
  236   227   161 1
  237   228   139 1
  238   229   139 1
  239   230   153 1
  240   231   152 1
  241   232   150 1
  242   233   149 1
  243   234   148 1
  244   235   162 1
  245   65    153 1
  246   65    174 1
@<TRIPOS>SUBSTRUCTURE
      1 CLA               1 ****               0 ****  **** 
      2 LUT             138 ****               0 ****  **** 
