@<TRIPOS>MOLECULE
Cpptraj generated mol2 file.
  235   246     2     0     0
SMALL
USER_CHARGES


@<TRIPOS>ATOM
      1 CAA        78.8683   57.4566   35.5292 a2         1 CLA     -0.055900
      2 CAB        76.9344   61.4274   44.0660 c8         1 CLA     -0.148500
      3 CAC        70.8835   56.5056   42.8329 a2         1 CLA     -0.012600
      4 CAD        74.8744   54.5880   36.0409 ck         1 CLA      0.398800
      5 NA         77.2822   57.9679   38.6070 ns         1 CLA     -0.225500
      6 CBA        80.2263   57.3010   34.8401 a2         1 CLA     -0.135000
      7 CBB        77.8072   61.6716   45.0831 c0         1 CLA     -0.395200
      8 CBC        71.2165   55.0279   43.0072 a3         1 CLA     -0.037700
      9 CBD        76.3061   55.2882   35.9932 a1         1 CLA     -0.053900
     10 NB         76.4172   59.5603   40.9621 nm         1 CLA     -0.295700
     11 OBD        74.5806   53.6959   35.3101 o2         1 CLA     -0.494600
     12 CGA        80.7823   55.9386   34.4158 c4         1 CLA      0.827000
     13 CGD        77.3299   54.1365   36.0574 c4         1 CLA      0.655300
     14 ND         74.3654   56.9713   38.6568 nm         1 CLA     -0.291600
     15 CED        78.1773   52.3825   37.4449 a3         1 CLA      0.005400
     16 CHA        76.3122   56.3232   37.1460 cs         1 CLA     -0.123800
     17 CHB        78.7069   59.4313   39.9812 aa         1 CLA     -0.291900
     18 CHC        74.8650   59.5853   42.9033 aa         1 CLA     -0.090400
     19 CHD        72.4179   56.5439   40.0500 aa         1 CLA     -0.052000
     20 CMA        80.7595   57.4233   38.7411 a3         1 CLA     -0.230700
     21 CMB        79.4171   61.5373   41.9590 a3         1 CLA     -0.180800
     22 CMC        72.5024   58.5579   44.6820 a3         1 CLA     -0.134000
     23 CMD        71.7763   54.3568   37.6753 a3         1 CLA     -0.141100
     24 C1         81.9743   54.0486   35.1130 a2         1 CLA      0.023000
     25 C1A        77.3797   57.1035   37.5552 ac         1 CLA     -0.015100
     26 C1B        77.7830   59.8155   40.8941 cr         1 CLA      0.054700
     27 C1C        73.8230   58.7604   42.5093 cn         1 CLA     -0.005600
     28 C1D        73.1717   56.2955   38.8892 ap         1 CLA     -0.047300
     29 O1A        80.6493   55.5201   33.2912 o2         1 CLA     -0.610800
     30 O1D        78.3050   54.0169   35.2972 o2         1 CLA     -0.558200
     31 C2         81.5665   53.1953   36.3009 c8         1 CLA     -0.325100
     32 C2A        78.8205   57.0508   36.9913 a1         1 CLA      0.098600
     33 C2B        78.2064   60.6803   41.9577 cb         1 CLA      0.088500
     34 C2C        72.7075   58.2479   43.2647 cb         1 CLA      0.053700
     35 C2D        72.9399   55.3439   37.8686 cb         1 CLA      0.058900
     36 O2A        81.4605   55.4108   35.4916 o1         1 CLA     -0.437200
     37 O2D        77.1254   53.3314   37.1605 o1         1 CLA     -0.357600
     38 C3         82.3560   52.8216   37.3398 c5         1 CLA      0.031200
     39 C3A        79.5842   58.0861   37.9494 a1         1 CLA      0.166800
     40 C3B        77.1200   60.7589   42.7979 cb         1 CLA      0.035000
     41 C3C        72.0433   57.3513   42.4488 cb         1 CLA     -0.089900
     42 C3D        74.1234   55.3437   37.1092 cb         1 CLA     -0.035900
     43 C4         83.0670   51.4361   37.3489 a3         1 CLA     -0.053300
     44 C4A        78.4628   58.5965   38.8743 ac         1 CLA      0.001800
     45 C4B        76.0372   59.9606   42.1711 cn         1 CLA     -0.020900
     46 C4C        72.6660   57.4123   41.1381 cr         1 CLA     -0.044400
     47 C4D        74.9819   56.3239   37.6815 c6         1 CLA     -0.046000
     48 C5         82.5700   53.6992   38.5951 a2         1 CLA     -0.070400
     49 C6         83.9388   54.2671   38.7628 a2         1 CLA      0.043900
     50 C7         84.0407   55.2466   39.9462 a2         1 CLA     -0.150000
     51 C8         85.1564   56.2979   40.0024 a1         1 CLA      0.064200
     52 C9         86.3786   55.7025   39.3538 a3         1 CLA     -0.259300
     53 C10        85.3787   56.7800   41.4984 a2         1 CLA     -0.071900
     54 C11        84.2199   57.5332   42.1143 a2         1 CLA      0.014500
     55 C12        84.5604   58.4416   43.2145 a2         1 CLA     -0.112100
     56 C13        84.9366   57.8478   44.5980 a1         1 CLA      0.089200
     57 C14        83.8025   56.8716   45.1531 a3         1 CLA     -0.239100
     58 C15        85.3004   58.9120   45.6311 a2         1 CLA     -0.102200
     59 C16        84.1394   59.7040   46.1454 a2         1 CLA      0.023900
     60 C17        84.4295   60.8719   47.1177 a2         1 CLA     -0.105700
     61 C18        83.1221   61.6478   47.6124 a1         1 CLA      0.206800
     62 C19        82.3843   60.9240   48.7225 a3         1 CLA     -0.280100
     63 C20        83.5839   63.0407   48.0251 a3         1 CLA     -0.280100
     64 NC         73.7571   58.2538   41.2339 nx         1 CLA     -0.309200
     65 MG         75.3870   58.4170   39.7481 mg         1 CLA      0.895000
     66 HMD3       70.9611   54.9834   37.3556 dc         1 CLA      0.064300
     67 HMD2       72.1308   53.6041   36.9680 dc         1 CLA      0.064300
     68 HMD1       71.4324   53.8854   38.5882 dc         1 CLA      0.064300
     69 HMC3       73.3673   58.2196   45.2351 dc         1 CLA      0.052100
     70 HMC2       72.3889   59.6045   44.8423 dc         1 CLA      0.052100
     71 HMC1       71.6320   58.1284   45.0524 dc         1 CLA      0.052100
     72 HMB3       79.6325   61.8772   40.9460 dc         1 CLA      0.063600
     73 HMB2       79.1439   62.4479   42.5580 dc         1 CLA      0.063600
     74 HMB1       80.1098   60.9509   42.4827 dc         1 CLA      0.063600
     75 HMA3       81.2232   57.9944   39.5350 dc         1 CLA      0.058300
     76 HMA2       80.3989   56.5213   39.2270 dc         1 CLA      0.058300
     77 HMA1       81.4694   57.2397   37.9356 dc         1 CLA      0.058300
     78 HED3       78.0294   51.6730   38.2343 dc         1 CLA      0.079300
     79 HED2       78.4183   51.8920   36.5106 dc         1 CLA      0.079300
     80 HED1       79.0365   52.8319   37.7453 dc         1 CLA      0.079300
     81 HBC3       71.3623   54.4985   42.0824 dc         1 CLA      0.016300
     82 HBC2       72.1503   55.1269   43.5359 dc         1 CLA      0.016300
     83 HBC1       70.4574   54.4843   43.5823 dc         1 CLA      0.016300
     84 HBB2       77.6251   62.0505   46.1001 da         1 CLA      0.183000
     85 HBB1       78.8352   61.3343   45.0448 da         1 CLA      0.183000
     86 HBA2       80.1135   57.7731   33.8916 dc         1 CLA      0.029400
     87 HBA1       80.9492   57.7587   35.4107 dc         1 CLA      0.029400
     88 HAC2       70.3724   56.8991   43.6657 dc         1 CLA      0.029300
     89 HAC1       70.1712   56.4837   42.0199 dc         1 CLA      0.029300
     90 HAA2       78.2062   56.8028   34.9517 dc         1 CLA      0.028700
     91 HAA1       78.5466   58.4729   35.5176 dc         1 CLA      0.028700
     92 H203       82.6578   63.4991   48.4417 dc         1 CLA      0.065600
     93 H202       84.3621   62.9682   48.7601 dc         1 CLA      0.065600
     94 H201       83.8975   63.5603   47.1232 dc         1 CLA      0.065600
     95 H193       82.9390   60.7360   49.6128 dc         1 CLA      0.065600
     96 H192       81.5050   61.5797   49.0449 dc         1 CLA      0.065600
     97 H191       82.0382   59.9701   48.4005 dc         1 CLA      0.065600
     98 H172       85.0571   60.5837   47.9626 dc         1 CLA      0.027600
     99 H171       84.9155   61.6351   46.5162 dc         1 CLA      0.027600
    100 H162       83.6604   60.0994   45.3013 dc         1 CLA      0.002900
    101 H161       83.4692   59.0314   46.6507 dc         1 CLA      0.002900
    102 H152       85.8073   58.3554   46.3630 dc         1 CLA      0.029100
    103 H151       85.9944   59.6089   45.1509 dc         1 CLA      0.029100
    104 H143       83.9434   56.4081   46.1249 dc         1 CLA      0.063600
    105 H142       82.8234   57.4310   45.0680 dc         1 CLA      0.063600
    106 H141       83.7293   55.9212   44.5907 dc         1 CLA      0.063600
    107 H122       85.3517   59.1346   42.8054 dc         1 CLA      0.032500
    108 H121       83.6587   59.0117   43.3063 dc         1 CLA      0.032500
    109 H112       83.7256   58.2181   41.3967 dc         1 CLA      0.006600
    110 H111       83.4623   56.7711   42.4670 dc         1 CLA      0.006600
    111 H102       85.6323   55.8805   42.1137 dc         1 CLA      0.024100
    112 H101       86.3036   57.4069   41.5041 dc         1 CLA      0.024100
    113 HHD        71.6061   55.8686   40.0577 da         1 CLA      0.174300
    114 HHC        74.7803   59.8630   43.9936 da         1 CLA      0.136800
    115 HHB        79.7029   59.8772   40.0849 da         1 CLA      0.138300
    116 HBD        76.4126   55.7312   34.9742 dc         1 CLA      0.107700
    117 HAB        75.9127   61.7164   44.2756 da         1 CLA      0.155200
    118 H93        86.4602   54.6350   39.6977 dc         1 CLA      0.069500
    119 H92        86.2489   55.7598   38.2781 dc         1 CLA      0.069500
    120 H91        87.2018   56.3552   39.5650 dc         1 CLA      0.069500
    121 H8         84.9290   57.1549   39.3034 dc         1 CLA      0.029300
    122 H72        83.1175   55.8784   39.9378 dc         1 CLA      0.044400
    123 H71        83.9751   54.6971   40.9388 dc         1 CLA      0.044400
    124 H62        84.6562   53.4169   38.8986 dc         1 CLA      0.015600
    125 H61        84.0702   54.8197   37.8503 dc         1 CLA      0.015600
    126 H52        81.9245   54.5498   38.6644 dc         1 CLA      0.033200
    127 H51        82.3933   53.0213   39.4753 dc         1 CLA      0.033200
    128 H43        82.7004   50.8446   38.1731 dc         1 CLA      0.037000
    129 H42        82.8168   50.9166   36.4326 dc         1 CLA      0.037000
    130 H41        84.1093   51.5685   37.5194 dc         1 CLA      0.037000
    131 H3A        79.8758   58.9600   37.3931 dc         1 CLA      0.041100
    132 H2A        79.2124   56.0600   37.0696 dc         1 CLA      0.083100
    133 H2         80.5522   52.8600   36.3240 da         1 CLA      0.180900
    134 H18        82.3801   61.7227   46.8354 dc         1 CLA     -0.003900
    135 H13        85.8252   57.3077   44.3915 dc         1 CLA      0.019700
    136 H12        81.5029   53.5929   34.2524 dc         1 CLA      0.120400
    137 H11        82.9809   54.0751   34.8760 dc         1 CLA      0.120400
    138 C1         68.2858   60.5869   50.2708 Z1         2 LUT      0.509236
    139 C2         67.0073   60.4453   51.0398 Z2         2 LUT     -0.434695
    140 C3         66.2267   61.7073   51.3134 Z3         2 LUT      0.437453
    141 O3         66.4872   62.3323   52.5783 S1         2 LUT     -0.547129
    142 C4         66.3344   62.7055   50.2635 Z4         2 LUT     -0.468603
    143 C5         67.0953   62.3425   49.0359 Z5         2 LUT      0.279246
    144 C6         67.9769   61.3452   49.0061 Z6         2 LUT     -0.305473
    145 C7         68.3687   60.8088   47.7051 Z7         2 LUT      0.069402
    146 C8         69.3573   61.3456   46.9429 Z8         2 LUT     -0.191631
    147 C9         69.7556   61.1066   45.5405 Z9         2 LUT      0.196698
    148 C10        70.7472   61.8909   44.9887 Y1         2 LUT     -0.208611
    149 C11        71.2767   61.8838   43.6475 Y2         2 LUT      0.030784
    150 C12        72.3549   62.5950   43.3300 Y3         2 LUT     -0.220316
    151 C13        73.1870   62.5756   42.1579 Y4         2 LUT      0.215937
    152 C14        74.3455   63.2822   42.3456 Y5         2 LUT     -0.185793
    153 C15        75.5308   63.3754   41.5159 Y6         2 LUT     -0.057835
    154 C16        68.7738   59.1646   50.1495 Y7         2 LUT     -0.405615
    155 C17        69.2692   61.4340   51.1914 Y7         2 LUT     -0.405615
    156 C18        66.7631   63.2301   47.9230 Y9         2 LUT     -0.369639
    157 C19        69.1108   59.9606   44.7817 W1         2 LUT     -0.333362
    158 C20        72.8576   61.9385   40.8513 W2         2 LUT     -0.323439
    159 C21        87.2978   64.6272   35.8710 Z1         2 LUT      0.406104
    160 C22        88.1881   64.4393   34.6406 Z2         2 LUT     -0.404965
    161 C23        88.2514   65.4576   33.5504 Z3         2 LUT      0.391255
    162 O23        89.0690   65.1000   32.4223 S1         2 LUT     -0.528210
    163 C24        86.9278   66.1518   33.2519 W6         2 LUT     -0.258361
    164 C25        85.8908   66.0735   34.1257 Z5         2 LUT      0.133546
    165 C26        85.9322   65.1545   35.4072 W8         2 LUT     -0.147008
    166 C27        85.1011   65.7295   36.5553 Z7         2 LUT      0.023843
    167 C28        83.8537   65.3390   36.9881 Z8         2 LUT     -0.216987
    168 C29        83.1196   65.6602   38.1681 Z9         2 LUT      0.206524
    169 C30        81.9297   65.0360   38.4009 Y1         2 LUT     -0.215556
    170 C31        81.0984   65.2577   39.5677 Y2         2 LUT      0.025142
    171 C32        79.8223   64.7324   39.6153 Y3         2 LUT     -0.212209
    172 C33        78.9299   64.8733   40.7688 Y4         2 LUT      0.240937
    173 C34        77.7310   64.2078   40.6843 Y5         2 LUT     -0.218862
    174 C35        76.6693   64.0742   41.7411 Y6         2 LUT     -0.023547
    175 C36        88.1308   65.4849   36.8742 Y7         2 LUT     -0.393485
    176 C37        87.1878   63.2720   36.5077 Y7         2 LUT     -0.393485
    177 C38        84.6006   66.8056   33.7707 Y9         2 LUT     -0.387526
    178 C39        83.7520   66.6022   39.1742 W1         2 LUT     -0.322618
    179 C40        79.5163   65.5471   42.0923 W2         2 LUT     -0.358472
    180 H403       80.3042   64.9463   42.4475 R7         2 LUT      0.097720
    181 H402       79.9299   66.5832   41.9606 R7         2 LUT      0.097720
    182 H401       78.6472   65.6335   42.7417 R7         2 LUT      0.097720
    183 H393       83.3862   67.5939   39.0106 R4         2 LUT      0.082505
    184 H392       83.5244   66.3562   40.2424 R4         2 LUT      0.082505
    185 H391       84.8364   66.6345   39.1492 R4         2 LUT      0.082505
    186 H383       84.7986   67.5244   32.9873 R1         2 LUT      0.104030
    187 H382       83.9287   66.0401   33.4278 R1         2 LUT      0.104030
    188 H381       84.2305   67.3132   34.5955 R1         2 LUT      0.104030
    189 H373       86.5375   63.2065   37.3256 T4         2 LUT      0.089537
    190 H372       86.8633   62.4816   35.8264 T4         2 LUT      0.089537
    191 H371       88.1492   62.7600   36.7773 T4         2 LUT      0.089537
    192 H363       89.1104   65.0025   37.0657 T4         2 LUT      0.089537
    193 H362       88.3441   66.4554   36.5144 T4         2 LUT      0.089537
    194 H361       87.6355   65.5748   37.8468 T4         2 LUT      0.089537
    195 H222       89.1540   64.1955   34.9863 U2         2 LUT      0.127376
    196 H221       87.9113   63.5617   34.0146 U2         2 LUT      0.127376
    197 H203       71.8241   61.9974   40.5362 R7         2 LUT      0.087068
    198 H202       73.4096   62.4332   40.0616 R7         2 LUT      0.087068
    199 H201       73.1957   60.8803   40.7416 R7         2 LUT      0.087068
    200 H193       69.3891   59.9272   43.7338 R4         2 LUT      0.089716
    201 H192       69.4607   59.0609   45.1921 R4         2 LUT      0.089716
    202 H191       68.0286   59.9056   44.8893 R4         2 LUT      0.089716
    203 H183       66.3930   62.6654   47.0841 R1         2 LUT      0.094572
    204 H182       65.8744   63.8429   48.1322 R1         2 LUT      0.094572
    205 H181       67.6253   63.9000   47.5855 R1         2 LUT      0.094572
    206 H173       68.9810   62.4538   51.3631 T4         2 LUT      0.093752
    207 H172       69.4482   60.9868   52.2044 T4         2 LUT      0.093752
    208 H171       70.2732   61.5079   50.8228 T4         2 LUT      0.093752
    209 H163       67.9088   58.4545   49.8374 T4         2 LUT      0.093752
    210 H162       69.5804   59.1404   49.4026 T4         2 LUT      0.093752
    211 H161       69.1027   58.7383   51.1171 T4         2 LUT      0.093752
    212 HO3        66.3642   61.7635   53.3508 Q1         2 LUT      0.300121
    213 H8         69.7260   62.2283   47.3790 U7         2 LUT      0.080784
    214 H7         67.7069   60.0600   47.2030 U6         2 LUT      0.042190
    215 H42        65.5082   63.3828   50.1344 U5         2 LUT      0.145166
    216 H41        66.9709   63.5525   50.6609 U5         2 LUT      0.145166
    217 H35        76.7364   64.6205   42.6897 T3         2 LUT      0.077919
    218 H34        77.6088   63.7174   39.7749 T2         2 LUT      0.073626
    219 H32        79.5043   64.1966   38.7729 T1         2 LUT      0.092510
    220 H31        81.3784   65.8079   40.3880 U9         2 LUT      0.070048
    221 H30        81.5544   64.3890   37.5816 U8         2 LUT      0.085442
    222 H3         65.1931   61.4568   51.3298 U3         2 LUT     -0.031596
    223 H28        83.3678   64.4827   36.4582 U7         2 LUT      0.084728
    224 H27        85.6049   66.4912   37.1441 U6         2 LUT      0.087291
    225 H26        85.4090   64.3078   35.0153 Q6         2 LUT      0.075325
    226 H24        86.8749   66.7758   32.3559 Q5         2 LUT      0.094482
    227 H23        88.7824   66.2873   33.9593 U3         2 LUT     -0.024869
    228 H22        66.2522   59.9677   50.3554 U2         2 LUT      0.127376
    229 H21        67.0879   59.9087   52.0081 U2         2 LUT      0.127376
    230 H15        75.5513   62.8735   40.5075 T3         2 LUT      0.093200
    231 H14        74.5783   63.9019   43.1655 T2         2 LUT      0.068865
    232 H12        72.6557   63.2770   44.1709 T1         2 LUT      0.095507
    233 H11        70.8863   61.1406   42.9710 U9         2 LUT      0.068930
    234 H10        71.2746   62.6516   45.6265 U8         2 LUT      0.083911
    235 H1         88.5011   64.6695   31.7575 Q1         2 LUT      0.297311
@<TRIPOS>BOND
    1     6     1 1
    2     7     2 1
    3     8     3 1
    4     9     4 1
    5    11     4 1
    6    12     6 1
    7    13     9 1
    8    16     9 1
    9    25     5 1
   10    25    16 1
   11    26    10 1
   12    26    17 1
   13    27    18 1
   14    28    14 1
   15    28    19 1
   16    29    12 1
   17    30    13 1
   18    31    24 1
   19    32     1 1
   20    32    25 1
   21    33    21 1
   22    33    26 1
   23    34    22 1
   24    34    27 1
   25    35    23 1
   26    35    28 1
   27    36    12 1
   28    36    24 1
   29    37    13 1
   30    37    15 1
   31    38    31 1
   32    39    20 1
   33    39    32 1
   34    40     2 1
   35    40    33 1
   36    41     3 1
   37    41    34 1
   38    42     4 1
   39    42    35 1
   40    43    38 1
   41    44     5 1
   42    44    17 1
   43    44    39 1
   44    45    10 1
   45    45    18 1
   46    45    40 1
   47    46    19 1
   48    46    41 1
   49    47    14 1
   50    47    16 1
   51    47    42 1
   52    48    38 1
   53    49    48 1
   54    50    49 1
   55    51    50 1
   56    52    51 1
   57    53    51 1
   58    54    53 1
   59    55    54 1
   60    56    55 1
   61    57    56 1
   62    58    56 1
   63    59    58 1
   64    60    59 1
   65    61    60 1
   66    62    61 1
   67    63    61 1
   68    64    27 1
   69    64    46 1
   70    65     5 1
   71    65    10 1
   72    65    64 1
   73    65    14 1
   74    66    23 1
   75    67    23 1
   76    68    23 1
   77    69    22 1
   78    70    22 1
   79    71    22 1
   80    72    21 1
   81    73    21 1
   82    74    21 1
   83    75    20 1
   84    76    20 1
   85    77    20 1
   86    78    15 1
   87    79    15 1
   88    80    15 1
   89    81     8 1
   90    82     8 1
   91    83     8 1
   92    84     7 1
   93    85     7 1
   94    86     6 1
   95    87     6 1
   96    88     3 1
   97    89     3 1
   98    90     1 1
   99    91     1 1
  100    92    63 1
  101    93    63 1
  102    94    63 1
  103    95    62 1
  104    96    62 1
  105    97    62 1
  106    98    60 1
  107    99    60 1
  108   100    59 1
  109   101    59 1
  110   102    58 1
  111   103    58 1
  112   104    57 1
  113   105    57 1
  114   106    57 1
  115   107    55 1
  116   108    55 1
  117   109    54 1
  118   110    54 1
  119   111    53 1
  120   112    53 1
  121   113    19 1
  122   114    18 1
  123   115    17 1
  124   116     9 1
  125   117     2 1
  126   118    52 1
  127   119    52 1
  128   120    52 1
  129   121    51 1
  130   122    50 1
  131   123    50 1
  132   124    49 1
  133   125    49 1
  134   126    48 1
  135   127    48 1
  136   128    43 1
  137   129    43 1
  138   130    43 1
  139   131    39 1
  140   132    32 1
  141   133    31 1
  142   134    61 1
  143   135    56 1
  144   136    24 1
  145   137    24 1
  146   139   138 1
  147   140   139 1
  148   141   140 1
  149   142   140 1
  150   143   142 1
  151   144   138 1
  152   144   143 1
  153   145   144 1
  154   146   145 1
  155   147   146 1
  156   148   147 1
  157   149   148 1
  158   150   149 1
  159   151   150 1
  160   152   151 1
  161   153   152 1
  162   154   138 1
  163   155   138 1
  164   156   143 1
  165   157   147 1
  166   158   151 1
  167   160   159 1
  168   161   160 1
  169   162   161 1
  170   163   161 1
  171   164   163 1
  172   165   159 1
  173   165   164 1
  174   166   165 1
  175   167   166 1
  176   168   167 1
  177   169   168 1
  178   170   169 1
  179   171   170 1
  180   172   171 1
  181   173   172 1
  182   174   153 1
  183   174   173 1
  184   175   159 1
  185   176   159 1
  186   177   164 1
  187   178   168 1
  188   179   172 1
  189   180   179 1
  190   181   179 1
  191   182   179 1
  192   183   178 1
  193   184   178 1
  194   185   178 1
  195   186   177 1
  196   187   177 1
  197   188   177 1
  198   189   176 1
  199   190   176 1
  200   191   176 1
  201   192   175 1
  202   193   175 1
  203   194   175 1
  204   195   160 1
  205   196   160 1
  206   197   158 1
  207   198   158 1
  208   199   158 1
  209   200   157 1
  210   201   157 1
  211   202   157 1
  212   203   156 1
  213   204   156 1
  214   205   156 1
  215   206   155 1
  216   207   155 1
  217   208   155 1
  218   209   154 1
  219   210   154 1
  220   211   154 1
  221   212   141 1
  222   213   146 1
  223   214   145 1
  224   215   142 1
  225   216   142 1
  226   217   174 1
  227   218   173 1
  228   219   171 1
  229   220   170 1
  230   221   169 1
  231   222   140 1
  232   223   167 1
  233   224   166 1
  234   225   165 1
  235   226   163 1
  236   227   161 1
  237   228   139 1
  238   229   139 1
  239   230   153 1
  240   231   152 1
  241   232   150 1
  242   233   149 1
  243   234   148 1
  244   235   162 1
  245   65    153 1
  246   65    174 1
@<TRIPOS>SUBSTRUCTURE
      1 CLA               1 ****               0 ****  **** 
      2 LUT             138 ****               0 ****  **** 
