@<TRIPOS>MOLECULE
Cpptraj generated mol2 file.
  235   246     2     0     0
SMALL
USER_CHARGES


@<TRIPOS>ATOM
      1 CAA        80.0704   58.6903   34.4418 a2         1 CLA     -0.055900
      2 CAB        80.3175   62.5260   43.5079 c8         1 CLA     -0.148500
      3 CAC        73.6637   58.1139   43.4095 a2         1 CLA     -0.012600
      4 CAD        76.3180   55.7695   35.9434 ck         1 CLA      0.398800
      5 NA         79.2545   59.0054   37.9381 ns         1 CLA     -0.225500
      6 CBA        81.3627   58.6710   33.5539 a2         1 CLA     -0.135000
      7 CBB        80.0862   61.8527   44.6749 c0         1 CLA     -0.395200
      8 CBC        73.7088   56.6387   43.6505 a3         1 CLA     -0.037700
      9 CBD        77.6679   56.4895   35.6297 a1         1 CLA     -0.053900
     10 NB         79.1425   60.5294   40.5382 nm         1 CLA     -0.295700
     11 OBD        75.8894   54.8703   35.2277 o2         1 CLA     -0.494600
     12 CGA        81.7884   57.2236   33.2073 c4         1 CLA      0.827000
     13 CGD        78.7505   55.4111   35.4864 c4         1 CLA      0.655300
     14 ND         76.5832   57.8918   38.7429 nm         1 CLA     -0.291600
     15 CED        79.9587   53.8640   36.8491 a3         1 CLA      0.005400
     16 CHA        78.0163   57.3941   36.7665 cs         1 CLA     -0.123800
     17 CHB        80.9861   60.4736   38.9200 aa         1 CLA     -0.291900
     18 CHC        77.8808   60.8214   42.5375 aa         1 CLA     -0.090400
     19 CHD        74.8416   57.5463   40.4381 aa         1 CLA     -0.052000
     20 CMA        82.6554   58.3338   37.3302 a3         1 CLA     -0.230700
     21 CMB        82.4058   62.3614   40.9740 a3         1 CLA     -0.180800
     22 CMC        75.6454   60.3830   44.6787 a3         1 CLA     -0.134000
     23 CMD        73.5154   55.5214   38.1784 a3         1 CLA     -0.141100
     24 C1         82.7872   55.2951   34.0541 a2         1 CLA      0.023000
     25 C1A        79.0646   58.2439   36.8539 ac         1 CLA     -0.015100
     26 C1B        80.4237   60.8918   40.1162 cr         1 CLA      0.054700
     27 C1C        76.8083   59.9239   42.4224 cn         1 CLA     -0.005600
     28 C1D        75.3534   57.3391   39.1112 ap         1 CLA     -0.047300
     29 O1A        81.5957   56.6699   32.1276 o2         1 CLA     -0.610800
     30 O1D        79.3941   55.1369   34.5017 o2         1 CLA     -0.558200
     31 C2         83.5641   54.7496   35.3042 c8         1 CLA     -0.325100
     32 C2A        80.3247   58.3171   35.9331 a1         1 CLA      0.098600
     33 C2B        80.9669   61.7762   41.1346 cb         1 CLA      0.088500
     34 C2C        75.7431   59.6111   43.3561 cb         1 CLA      0.053700
     35 C2D        74.8718   56.3209   38.1536 cb         1 CLA      0.058900
     36 O2A        82.4063   56.7113   34.2498 o1         1 CLA     -0.437200
     37 O2D        78.8624   54.8587   36.6964 o1         1 CLA     -0.357600
     38 C3         84.2915   53.5970   35.3640 c5         1 CLA      0.031200
     39 C3A        81.3717   59.1790   36.7406 a1         1 CLA      0.166800
     40 C3B        80.0827   61.8480   42.2048 cb         1 CLA      0.035000
     41 C3C        74.9073   58.6497   42.8155 cb         1 CLA     -0.089900
     42 C3D        75.8904   56.3454   37.2060 cb         1 CLA     -0.035900
     43 C4         83.5785   52.3264   35.7766 a3         1 CLA     -0.053300
     44 C4A        80.5013   59.6300   37.9495 ac         1 CLA      0.001800
     45 C4B        79.0130   61.0478   41.8437 cn         1 CLA     -0.020900
     46 C4C        75.3459   58.4137   41.4255 cr         1 CLA     -0.044400
     47 C4D        76.8941   57.2597   37.6653 c6         1 CLA     -0.046000
     48 C5         85.7420   53.4275   35.1600 a2         1 CLA     -0.070400
     49 C6         86.5845   53.8553   36.3502 a2         1 CLA      0.043900
     50 C7         87.2977   55.2182   36.1749 a2         1 CLA     -0.150000
     51 C8         88.0631   55.8497   37.4018 a1         1 CLA      0.064200
     52 C9         89.1549   54.8579   37.8205 a3         1 CLA     -0.259300
     53 C10        87.1781   56.1675   38.6379 a2         1 CLA     -0.071900
     54 C11        87.9044   56.9192   39.8316 a2         1 CLA      0.014500
     55 C12        86.8817   57.2138   40.9856 a2         1 CLA     -0.112100
     56 C13        87.4399   58.1513   42.0350 a1         1 CLA      0.089200
     57 C14        88.5206   57.5174   42.8744 a3         1 CLA     -0.239100
     58 C15        86.3309   58.6613   42.9972 a2         1 CLA     -0.102200
     59 C16        86.5313   60.0800   43.6695 a2         1 CLA      0.023900
     60 C17        85.2132   60.5692   44.3785 a2         1 CLA     -0.105700
     61 C18        84.5529   59.6545   45.4848 a1         1 CLA      0.206800
     62 C19        85.4429   59.1212   46.5997 a3         1 CLA     -0.280100
     63 C20        83.4884   60.5976   46.1258 a3         1 CLA     -0.280100
     64 NC         76.5975   59.1432   41.2720 nx         1 CLA     -0.309200
     65 MG         77.7891   59.2858   39.5261 mg         1 CLA      0.895000
     66 HMD3       72.7238   56.1451   37.8375 dc         1 CLA      0.064300
     67 HMD2       73.6227   54.6099   37.5615 dc         1 CLA      0.064300
     68 HMD1       73.3622   55.2367   39.2203 dc         1 CLA      0.064300
     69 HMC3       74.6995   60.0404   45.1022 dc         1 CLA      0.052100
     70 HMC2       76.4748   60.2539   45.3579 dc         1 CLA      0.052100
     71 HMC1       75.6261   61.4391   44.4409 dc         1 CLA      0.052100
     72 HMB3       82.7309   62.7021   40.0000 dc         1 CLA      0.063600
     73 HMB2       82.5778   63.1379   41.6910 dc         1 CLA      0.063600
     74 HMB1       83.1477   61.6119   41.1662 dc         1 CLA      0.063600
     75 HMA3       83.3843   58.0200   36.5770 dc         1 CLA      0.058300
     76 HMA2       83.1743   58.9337   38.0509 dc         1 CLA      0.058300
     77 HMA1       82.1061   57.5157   37.8644 dc         1 CLA      0.058300
     78 HED3       80.9397   54.3531   36.7484 dc         1 CLA      0.079300
     79 HED2       79.9450   53.4036   37.7990 dc         1 CLA      0.079300
     80 HED1       79.9875   53.0483   36.0819 dc         1 CLA      0.079300
     81 HBC3       73.5992   55.9955   42.6957 dc         1 CLA      0.016300
     82 HBC2       74.5964   56.3223   44.2687 dc         1 CLA      0.016300
     83 HBC1       72.8602   56.3799   44.3909 dc         1 CLA      0.016300
     84 HBB2       80.4425   62.2275   45.6837 da         1 CLA      0.183000
     85 HBB1       79.6582   60.8343   44.6628 da         1 CLA      0.183000
     86 HBA2       81.1100   59.1228   32.5898 dc         1 CLA      0.029400
     87 HBA1       82.1506   59.0788   34.1489 dc         1 CLA      0.029400
     88 HAC2       73.5499   58.6867   44.3179 dc         1 CLA      0.029300
     89 HAC1       72.7547   58.3905   42.8631 dc         1 CLA      0.029300
     90 HAA2       79.2905   58.1077   33.9739 dc         1 CLA      0.028700
     91 HAA1       79.7195   59.6578   34.6066 dc         1 CLA      0.028700
     92 H203       82.9137   60.8894   45.2591 dc         1 CLA      0.065600
     93 H202       82.8303   59.9622   46.7398 dc         1 CLA      0.065600
     94 H201       84.0512   61.4113   46.6485 dc         1 CLA      0.065600
     95 H193       86.0915   58.2446   46.2000 dc         1 CLA      0.065600
     96 H192       86.0773   59.9301   46.8986 dc         1 CLA      0.065600
     97 H191       84.8772   58.8602   47.5156 dc         1 CLA      0.065600
     98 H172       85.5712   61.4621   44.9525 dc         1 CLA      0.027600
     99 H171       84.5305   60.8177   43.5497 dc         1 CLA      0.027600
    100 H162       87.2989   60.0296   44.4854 dc         1 CLA      0.002900
    101 H161       86.8050   60.8534   43.0130 dc         1 CLA      0.002900
    102 H152       85.4387   58.8483   42.3582 dc         1 CLA      0.029100
    103 H151       86.0707   57.9760   43.7980 dc         1 CLA      0.029100
    104 H143       88.1630   56.6588   43.4868 dc         1 CLA      0.063600
    105 H142       89.3843   57.3916   42.2629 dc         1 CLA      0.063600
    106 H141       88.8492   58.2785   43.6488 dc         1 CLA      0.063600
    107 H122       86.0377   57.7851   40.4335 dc         1 CLA      0.032500
    108 H121       86.4666   56.2985   41.2834 dc         1 CLA      0.032500
    109 H112       88.6932   56.3007   40.2342 dc         1 CLA      0.006600
    110 H111       88.1638   57.9109   39.4859 dc         1 CLA      0.006600
    111 H102       86.3466   56.8492   38.1734 dc         1 CLA      0.024100
    112 H101       86.8162   55.2769   39.0767 dc         1 CLA      0.024100
    113 HHD        74.0657   56.8548   40.5820 da         1 CLA      0.174300
    114 HHC        77.8058   61.4893   43.3935 da         1 CLA      0.136800
    115 HHB        82.0317   60.7890   38.6984 da         1 CLA      0.138300
    116 HBD        77.6442   57.0815   34.7005 dc         1 CLA      0.107700
    117 HAB        80.7172   63.5204   43.5229 da         1 CLA      0.155200
    118 H93        88.8260   53.9085   37.9266 dc         1 CLA      0.069500
    119 H92        89.8518   54.8396   37.0510 dc         1 CLA      0.069500
    120 H91        89.5907   55.1579   38.7722 dc         1 CLA      0.069500
    121 H8         88.3856   56.8760   37.2306 dc         1 CLA      0.029300
    122 H72        87.9387   55.1555   35.3053 dc         1 CLA      0.044400
    123 H71        86.6324   56.0239   35.9603 dc         1 CLA      0.044400
    124 H62        85.9111   53.9467   37.2274 dc         1 CLA      0.015600
    125 H61        87.2934   53.1197   36.5612 dc         1 CLA      0.015600
    126 H52        86.0507   52.4427   34.8063 dc         1 CLA      0.033200
    127 H51        86.0401   54.0287   34.2441 dc         1 CLA      0.033200
    128 H43        84.0732   51.4521   35.3277 dc         1 CLA      0.037000
    129 H42        83.6790   52.2155   36.8485 dc         1 CLA      0.037000
    130 H41        82.5571   52.2911   35.3377 dc         1 CLA      0.037000
    131 H3A        81.7274   60.1177   36.3653 dc         1 CLA      0.041100
    132 H2A        80.7063   57.3136   36.0133 dc         1 CLA      0.083100
    133 H2         83.5489   55.3762   36.1879 da         1 CLA      0.180900
    134 H18        84.0951   58.8068   44.9322 dc         1 CLA     -0.003900
    135 H13        87.7706   59.0516   41.4964 dc         1 CLA      0.019700
    136 H12        81.9980   54.6040   33.8491 dc         1 CLA      0.120400
    137 H11        83.4584   55.1570   33.2434 dc         1 CLA      0.120400
    138 C1         70.0360   62.0094   50.5506 Z1         2 LUT      0.509236
    139 C2         68.6464   61.7593   51.2249 Z2         2 LUT     -0.434695
    140 C3         67.7725   63.0374   51.4848 Z3         2 LUT      0.437453
    141 O3         68.1845   63.6612   52.7242 S1         2 LUT     -0.547129
    142 C4         68.0187   64.0462   50.3978 Z4         2 LUT     -0.468603
    143 C5         68.8325   63.7954   49.1596 Z5         2 LUT      0.279246
    144 C6         69.8268   62.8111   49.2291 Z6         2 LUT     -0.305473
    145 C7         70.2670   62.2427   47.9450 Z7         2 LUT      0.069402
    146 C8         71.1284   62.8007   47.0670 Z8         2 LUT     -0.191631
    147 C9         71.7202   62.2833   45.8155 Z9         2 LUT      0.196698
    148 C10        72.5824   63.2243   45.1947 Y1         2 LUT     -0.208611
    149 C11        73.3701   63.1013   43.9366 Y2         2 LUT      0.030784
    150 C12        74.5272   63.8348   43.7216 Y3         2 LUT     -0.220316
    151 C13        75.3915   63.6719   42.5658 Y4         2 LUT      0.215937
    152 C14        76.5522   64.4540   42.5203 Y5         2 LUT     -0.185793
    153 C15        77.7044   64.4422   41.6202 Y6         2 LUT     -0.057835
    154 C16        70.6968   60.6433   50.3967 Y7         2 LUT     -0.405615
    155 C17        71.0454   62.7307   51.4791 Y7         2 LUT     -0.405615
    156 C18        68.2409   64.2516   47.8811 Y9         2 LUT     -0.369639
    157 C19        71.4246   60.8984   45.3014 W1         2 LUT     -0.333362
    158 C20        75.0768   62.6470   41.4625 W2         2 LUT     -0.323439
    159 C21        88.8062   65.3902   34.9507 Z1         2 LUT      0.406104
    160 C22        89.3157   64.5933   33.8429 Z2         2 LUT     -0.404965
    161 C23        89.3311   65.2368   32.4866 Z3         2 LUT      0.391255
    162 O23        89.6318   64.2293   31.5182 S1         2 LUT     -0.528210
    163 C24        88.1805   66.1028   32.2780 W6         2 LUT     -0.258361
    164 C25        87.2104   66.3366   33.1423 Z5         2 LUT      0.133546
    165 C26        87.3092   65.7214   34.5503 W8         2 LUT     -0.147008
    166 C27        86.6349   66.5431   35.6112 Z7         2 LUT      0.023843
    167 C28        85.5630   66.1330   36.4198 Z8         2 LUT     -0.216987
    168 C29        84.9245   66.7955   37.6107 Z9         2 LUT      0.206524
    169 C30        83.9487   66.1197   38.2073 Y1         2 LUT     -0.215556
    170 C31        83.1868   66.3811   39.3662 Y2         2 LUT      0.025142
    171 C32        82.0255   65.7731   39.7015 Y3         2 LUT     -0.212209
    172 C33        81.0943   65.9926   40.8045 Y4         2 LUT      0.240937
    173 C34        79.8668   65.3118   40.7523 Y5         2 LUT     -0.218862
    174 C35        78.8084   65.2685   41.7434 Y6         2 LUT     -0.023547
    175 C36        89.6072   66.7132   35.2632 Y7         2 LUT     -0.393485
    176 C37        88.9203   64.4482   36.1487 Y7         2 LUT     -0.393485
    177 C38        86.1162   67.2988   32.7825 Y9         2 LUT     -0.387526
    178 C39        85.1805   68.2121   37.9357 W1         2 LUT     -0.322618
    179 C40        81.5498   66.8451   41.9446 W2         2 LUT     -0.358472
    180 H403       81.0420   66.7748   42.8716 R7         2 LUT      0.097720
    181 H402       82.5665   66.5725   42.1434 R7         2 LUT      0.097720
    182 H401       81.6482   67.8928   41.7576 R7         2 LUT      0.097720
    183 H393       85.1776   68.8428   37.0525 R4         2 LUT      0.082505
    184 H392       84.5079   68.5995   38.6462 R4         2 LUT      0.082505
    185 H391       86.1792   68.3773   38.3498 R4         2 LUT      0.082505
    186 H383       85.6395   66.9920   31.8577 R1         2 LUT      0.104030
    187 H382       85.4479   67.4405   33.5946 R1         2 LUT      0.104030
    188 H381       86.6001   68.3143   32.5105 R1         2 LUT      0.104030
    189 H373       89.9741   64.3378   36.4886 T4         2 LUT      0.089537
    190 H372       88.4451   64.8635   37.0691 T4         2 LUT      0.089537
    191 H371       88.5074   63.4603   35.9565 T4         2 LUT      0.089537
    192 H363       89.2412   67.0947   36.2428 T4         2 LUT      0.089537
    193 H362       90.6977   66.6182   35.2899 T4         2 LUT      0.089537
    194 H361       89.5221   67.4198   34.5466 T4         2 LUT      0.089537
    195 H222       90.2632   64.1177   34.0586 U2         2 LUT      0.127376
    196 H221       88.6143   63.7880   33.6342 U2         2 LUT      0.127376
    197 H203       74.5627   61.6520   41.7524 R7         2 LUT      0.087068
    198 H202       74.3077   63.1799   40.7772 R7         2 LUT      0.087068
    199 H201       75.9095   62.3165   40.7980 R7         2 LUT      0.087068
    200 H193       70.9256   60.8753   44.3456 R4         2 LUT      0.089716
    201 H192       72.3642   60.4003   45.2243 R4         2 LUT      0.089716
    202 H191       70.8977   60.2579   45.9573 R4         2 LUT      0.089716
    203 H183       68.6433   65.2611   47.7752 R1         2 LUT      0.094572
    204 H182       68.5098   63.7374   47.0282 R1         2 LUT      0.094572
    205 H181       67.1460   64.3628   47.9760 R1         2 LUT      0.094572
    206 H173       72.0192   62.8372   51.0854 T4         2 LUT      0.093752
    207 H172       70.6161   63.7295   51.6397 T4         2 LUT      0.093752
    208 H171       71.0070   62.3011   52.4877 T4         2 LUT      0.093752
    209 H163       71.7762   60.7674   50.1970 T4         2 LUT      0.093752
    210 H162       70.5163   60.1240   51.3533 T4         2 LUT      0.093752
    211 H161       70.2645   59.8967   49.6520 T4         2 LUT      0.093752
    212 HO3        67.9403   63.1556   53.5054 Q1         2 LUT      0.300121
    213 H8         71.4013   63.7088   47.5047 U7         2 LUT      0.080784
    214 H7         70.0677   61.1718   47.8718 U6         2 LUT      0.042190
    215 H42        67.0121   64.3025   50.0658 U5         2 LUT      0.145166
    216 H41        68.2148   65.0135   50.8052 U5         2 LUT      0.145166
    217 H35        78.8820   65.7949   42.7040 T3         2 LUT      0.077919
    218 H34        79.6407   64.7215   39.8115 T2         2 LUT      0.073626
    219 H32        81.6349   64.9955   39.0420 T1         2 LUT      0.092510
    220 H31        83.4913   67.1912   40.0324 U9         2 LUT      0.070048
    221 H30        83.7772   65.1122   37.7568 U8         2 LUT      0.085442
    222 H3         66.6512   62.7902   51.5323 U3         2 LUT     -0.031596
    223 H28        85.2616   65.0749   36.3735 U7         2 LUT      0.084728
    224 H27        86.9360   67.5603   35.7020 U6         2 LUT      0.087291
    225 H26        86.7864   64.7063   34.4814 Q6         2 LUT      0.075325
    226 H24        88.2227   66.6280   31.3385 Q5         2 LUT      0.094482
    227 H23        90.0354   66.0191   32.6525 U3         2 LUT     -0.024869
    228 H22        68.1017   61.3149   50.4690 U2         2 LUT      0.127376
    229 H21        68.7404   61.1422   52.1174 U2         2 LUT      0.127376
    230 H15        77.6475   63.7914   40.7792 T3         2 LUT      0.093200
    231 H14        76.6480   65.1098   43.4141 T2         2 LUT      0.068865
    232 H12        74.8725   64.6178   44.4018 T1         2 LUT      0.095507
    233 H11        73.0760   62.2472   43.3464 U9         2 LUT      0.068930
    234 H10        72.7290   64.1614   45.7515 U8         2 LUT      0.083911
    235 H1         89.9471   64.6612   30.6836 Q1         2 LUT      0.297311
@<TRIPOS>BOND
    1     6     1 1
    2     7     2 1
    3     8     3 1
    4     9     4 1
    5    11     4 1
    6    12     6 1
    7    13     9 1
    8    16     9 1
    9    25     5 1
   10    25    16 1
   11    26    10 1
   12    26    17 1
   13    27    18 1
   14    28    14 1
   15    28    19 1
   16    29    12 1
   17    30    13 1
   18    31    24 1
   19    32     1 1
   20    32    25 1
   21    33    21 1
   22    33    26 1
   23    34    22 1
   24    34    27 1
   25    35    23 1
   26    35    28 1
   27    36    12 1
   28    36    24 1
   29    37    13 1
   30    37    15 1
   31    38    31 1
   32    39    20 1
   33    39    32 1
   34    40     2 1
   35    40    33 1
   36    41     3 1
   37    41    34 1
   38    42     4 1
   39    42    35 1
   40    43    38 1
   41    44     5 1
   42    44    17 1
   43    44    39 1
   44    45    10 1
   45    45    18 1
   46    45    40 1
   47    46    19 1
   48    46    41 1
   49    47    14 1
   50    47    16 1
   51    47    42 1
   52    48    38 1
   53    49    48 1
   54    50    49 1
   55    51    50 1
   56    52    51 1
   57    53    51 1
   58    54    53 1
   59    55    54 1
   60    56    55 1
   61    57    56 1
   62    58    56 1
   63    59    58 1
   64    60    59 1
   65    61    60 1
   66    62    61 1
   67    63    61 1
   68    64    27 1
   69    64    46 1
   70    65     5 1
   71    65    10 1
   72    65    64 1
   73    65    14 1
   74    66    23 1
   75    67    23 1
   76    68    23 1
   77    69    22 1
   78    70    22 1
   79    71    22 1
   80    72    21 1
   81    73    21 1
   82    74    21 1
   83    75    20 1
   84    76    20 1
   85    77    20 1
   86    78    15 1
   87    79    15 1
   88    80    15 1
   89    81     8 1
   90    82     8 1
   91    83     8 1
   92    84     7 1
   93    85     7 1
   94    86     6 1
   95    87     6 1
   96    88     3 1
   97    89     3 1
   98    90     1 1
   99    91     1 1
  100    92    63 1
  101    93    63 1
  102    94    63 1
  103    95    62 1
  104    96    62 1
  105    97    62 1
  106    98    60 1
  107    99    60 1
  108   100    59 1
  109   101    59 1
  110   102    58 1
  111   103    58 1
  112   104    57 1
  113   105    57 1
  114   106    57 1
  115   107    55 1
  116   108    55 1
  117   109    54 1
  118   110    54 1
  119   111    53 1
  120   112    53 1
  121   113    19 1
  122   114    18 1
  123   115    17 1
  124   116     9 1
  125   117     2 1
  126   118    52 1
  127   119    52 1
  128   120    52 1
  129   121    51 1
  130   122    50 1
  131   123    50 1
  132   124    49 1
  133   125    49 1
  134   126    48 1
  135   127    48 1
  136   128    43 1
  137   129    43 1
  138   130    43 1
  139   131    39 1
  140   132    32 1
  141   133    31 1
  142   134    61 1
  143   135    56 1
  144   136    24 1
  145   137    24 1
  146   139   138 1
  147   140   139 1
  148   141   140 1
  149   142   140 1
  150   143   142 1
  151   144   138 1
  152   144   143 1
  153   145   144 1
  154   146   145 1
  155   147   146 1
  156   148   147 1
  157   149   148 1
  158   150   149 1
  159   151   150 1
  160   152   151 1
  161   153   152 1
  162   154   138 1
  163   155   138 1
  164   156   143 1
  165   157   147 1
  166   158   151 1
  167   160   159 1
  168   161   160 1
  169   162   161 1
  170   163   161 1
  171   164   163 1
  172   165   159 1
  173   165   164 1
  174   166   165 1
  175   167   166 1
  176   168   167 1
  177   169   168 1
  178   170   169 1
  179   171   170 1
  180   172   171 1
  181   173   172 1
  182   174   153 1
  183   174   173 1
  184   175   159 1
  185   176   159 1
  186   177   164 1
  187   178   168 1
  188   179   172 1
  189   180   179 1
  190   181   179 1
  191   182   179 1
  192   183   178 1
  193   184   178 1
  194   185   178 1
  195   186   177 1
  196   187   177 1
  197   188   177 1
  198   189   176 1
  199   190   176 1
  200   191   176 1
  201   192   175 1
  202   193   175 1
  203   194   175 1
  204   195   160 1
  205   196   160 1
  206   197   158 1
  207   198   158 1
  208   199   158 1
  209   200   157 1
  210   201   157 1
  211   202   157 1
  212   203   156 1
  213   204   156 1
  214   205   156 1
  215   206   155 1
  216   207   155 1
  217   208   155 1
  218   209   154 1
  219   210   154 1
  220   211   154 1
  221   212   141 1
  222   213   146 1
  223   214   145 1
  224   215   142 1
  225   216   142 1
  226   217   174 1
  227   218   173 1
  228   219   171 1
  229   220   170 1
  230   221   169 1
  231   222   140 1
  232   223   167 1
  233   224   166 1
  234   225   165 1
  235   226   163 1
  236   227   161 1
  237   228   139 1
  238   229   139 1
  239   230   153 1
  240   231   152 1
  241   232   150 1
  242   233   149 1
  243   234   148 1
  244   235   162 1
  245   65    153 1
  246   65    174 1
@<TRIPOS>SUBSTRUCTURE
      1 CLA               1 ****               0 ****  **** 
      2 LUT             138 ****               0 ****  **** 
