@<TRIPOS>MOLECULE
Cpptraj generated mol2 file.
  235   246     2     0     0
SMALL
USER_CHARGES


@<TRIPOS>ATOM
      1 CAA        77.8352   57.2401   32.9123 a2         1 CLA     -0.055900
      2 CAB        77.7559   61.6391   41.8083 c8         1 CLA     -0.148500
      3 CAC        70.7448   57.6121   41.4065 a2         1 CLA     -0.012600
      4 CAD        73.4869   54.8466   34.3297 ck         1 CLA      0.398800
      5 NA         76.7132   57.9738   36.2679 ns         1 CLA     -0.225500
      6 CBA        79.0997   57.0579   32.0875 a2         1 CLA     -0.135000
      7 CBB        78.7874   61.4119   42.6906 c0         1 CLA     -0.395200
      8 CBC        70.7343   56.0927   41.3000 a3         1 CLA     -0.037700
      9 CBD        75.0677   55.1962   34.0790 a1         1 CLA     -0.053900
     10 NB         76.5914   59.6078   38.8654 nm         1 CLA     -0.295700
     11 OBD        72.7862   54.0399   33.6985 o2         1 CLA     -0.494600
     12 CGA        79.5739   55.6625   31.8465 c4         1 CLA      0.827000
     13 CGD        75.7942   53.8134   34.1616 c4         1 CLA      0.655300
     14 ND         73.9264   57.1451   36.9615 nm         1 CLA     -0.291600
     15 CED        76.1246   51.8140   35.3772 a3         1 CLA      0.005400
     16 CHA        75.4088   56.2809   35.0640 cs         1 CLA     -0.123800
     17 CHB        78.5246   59.3665   37.3083 aa         1 CLA     -0.291900
     18 CHC        75.3135   59.9641   40.9429 aa         1 CLA     -0.090400
     19 CHD        72.0658   57.2569   38.4586 aa         1 CLA     -0.052000
     20 CMA        80.2073   57.2429   35.7622 a3         1 CLA     -0.230700
     21 CMB        79.9428   61.3619   39.4516 a3         1 CLA     -0.180800
     22 CMC        73.0086   59.4921   42.9105 a3         1 CLA     -0.134000
     23 CMD        70.7039   55.4203   36.4023 a3         1 CLA     -0.141100
     24 C1         80.5751   53.7836   32.7117 a2         1 CLA      0.023000
     25 C1A        76.6057   56.9833   35.2801 ac         1 CLA     -0.015100
     26 C1B        77.9169   59.9195   38.4739 cr         1 CLA      0.054700
     27 C1C        74.1061   59.2252   40.6396 cn         1 CLA     -0.005600
     28 C1D        72.6553   56.7663   37.3295 ap         1 CLA     -0.047300
     29 O1A        79.2721   54.9207   30.9309 o2         1 CLA     -0.610800
     30 O1D        76.5467   53.3444   33.2750 o2         1 CLA     -0.558200
     31 C2         80.9497   53.2802   34.0860 c8         1 CLA     -0.325100
     32 C2A        77.9616   56.9411   34.4976 a1         1 CLA      0.098600
     33 C2B        78.5639   60.7285   39.4723 cb         1 CLA      0.088500
     34 C2C        72.9904   59.0105   41.5102 cb         1 CLA      0.053700
     35 C2D        72.0536   55.8428   36.3894 cb         1 CLA      0.058900
     36 O2A        80.2845   55.2140   32.9097 o1         1 CLA     -0.437200
     37 O2D        75.5391   53.1892   35.3207 o1         1 CLA     -0.357600
     38 C3         81.6680   52.1518   34.3290 c5         1 CLA      0.031200
     39 C3A        78.8352   57.8751   35.2847 a1         1 CLA      0.166800
     40 C3B        77.6184   60.8467   40.5362 cb         1 CLA      0.035000
     41 C3C        72.0026   58.2488   40.8138 cb         1 CLA     -0.089900
     42 C3D        73.0983   55.5285   35.5330 cb         1 CLA     -0.035900
     43 C4         81.0681   50.7939   34.4840 a3         1 CLA     -0.053300
     44 C4A        78.0054   58.4926   36.3637 ac         1 CLA      0.001800
     45 C4B        76.3877   60.1042   40.0944 cn         1 CLA     -0.020900
     46 C4C        72.6491   57.9667   39.5087 cr         1 CLA     -0.044400
     47 C4D        74.2077   56.4011   35.8833 c6         1 CLA     -0.046000
     48 C5         83.1671   52.1278   34.1754 a2         1 CLA     -0.070400
     49 C6         83.9352   53.4156   34.6884 a2         1 CLA      0.043900
     50 C7         83.8606   53.5063   36.2416 a2         1 CLA     -0.150000
     51 C8         84.8426   54.5741   36.8708 a1         1 CLA      0.064200
     52 C9         86.3374   54.1597   36.9402 a3         1 CLA     -0.259300
     53 C10        84.3891   54.9339   38.2954 a2         1 CLA     -0.071900
     54 C11        82.9208   55.3952   38.4693 a2         1 CLA      0.014500
     55 C12        82.8952   56.2376   39.7152 a2         1 CLA     -0.112100
     56 C13        81.6096   56.7131   40.3287 a1         1 CLA      0.089200
     57 C14        80.8926   57.7403   39.3981 a3         1 CLA     -0.239100
     58 C15        81.6261   57.2651   41.8358 a2         1 CLA     -0.102200
     59 C16        82.5759   58.4195   42.1938 a2         1 CLA      0.023900
     60 C17        82.3502   58.6589   43.7053 a2         1 CLA     -0.105700
     61 C18        83.2043   59.7792   44.3898 a1         1 CLA      0.206800
     62 C19        82.6200   60.2629   45.6641 a3         1 CLA     -0.280100
     63 C20        84.6610   59.3710   44.5935 a3         1 CLA     -0.280100
     64 NC         73.8939   58.5673   39.4650 nx         1 CLA     -0.309200
     65 MG         75.1821   58.4579   37.8061 mg         1 CLA      0.895000
     66 HMD3       70.5842   54.7271   35.6673 dc         1 CLA      0.064300
     67 HMD2       70.4296   54.9661   37.3712 dc         1 CLA      0.064300
     68 HMD1       70.1088   56.2721   36.1823 dc         1 CLA      0.064300
     69 HMC3       73.4309   60.4831   42.9448 dc         1 CLA      0.052100
     70 HMC2       71.9949   59.4607   43.4078 dc         1 CLA      0.052100
     71 HMC1       73.7624   58.9284   43.4063 dc         1 CLA      0.052100
     72 HMB3       80.4672   61.5399   38.4369 dc         1 CLA      0.063600
     73 HMB2       79.9691   62.3599   39.9847 dc         1 CLA      0.063600
     74 HMB1       80.6058   60.6838   40.0551 dc         1 CLA      0.063600
     75 HMA3       80.0924   56.1929   36.2236 dc         1 CLA      0.058300
     76 HMA2       80.9142   57.0038   34.9850 dc         1 CLA      0.058300
     77 HMA1       80.7046   57.9135   36.4737 dc         1 CLA      0.058300
     78 HED3       75.9850   51.3890   36.3680 dc         1 CLA      0.079300
     79 HED2       75.5457   51.2256   34.6885 dc         1 CLA      0.079300
     80 HED1       77.1947   51.7635   35.2113 dc         1 CLA      0.079300
     81 HBC3       70.0091   55.7017   41.9793 dc         1 CLA      0.016300
     82 HBC2       70.6372   55.6765   40.3415 dc         1 CLA      0.016300
     83 HBC1       71.6908   55.7624   41.7250 dc         1 CLA      0.016300
     84 HBB2       78.8886   61.9781   43.5931 da         1 CLA      0.183000
     85 HBB1       79.5627   60.6384   42.4864 da         1 CLA      0.183000
     86 HBA2       78.9888   57.4962   31.0521 dc         1 CLA      0.029400
     87 HBA1       79.8302   57.7069   32.5645 dc         1 CLA      0.029400
     88 HAC2       70.6845   57.8043   42.4555 dc         1 CLA      0.029300
     89 HAC1       69.8109   58.0412   40.9694 dc         1 CLA      0.029300
     90 HAA2       77.1831   56.4791   32.5668 dc         1 CLA      0.028700
     91 HAA1       77.5220   58.3044   32.8078 dc         1 CLA      0.028700
     92 H203       85.1299   60.2611   44.9811 dc         1 CLA      0.065600
     93 H202       84.8653   58.5894   45.3336 dc         1 CLA      0.065600
     94 H201       85.1389   59.1278   43.6567 dc         1 CLA      0.065600
     95 H193       82.6666   59.5290   46.4854 dc         1 CLA      0.065600
     96 H192       83.1844   61.2160   45.9199 dc         1 CLA      0.065600
     97 H191       81.6076   60.5828   45.5984 dc         1 CLA      0.065600
     98 H172       81.3133   58.9345   43.7551 dc         1 CLA      0.027600
     99 H171       82.5800   57.7404   44.1922 dc         1 CLA      0.027600
    100 H162       83.6021   58.1660   42.0436 dc         1 CLA      0.002900
    101 H161       82.3708   59.3648   41.7786 dc         1 CLA      0.002900
    102 H152       80.6290   57.6636   42.0081 dc         1 CLA      0.029100
    103 H151       81.7889   56.3351   42.3155 dc         1 CLA      0.029100
    104 H143       80.6042   57.1315   38.5220 dc         1 CLA      0.063600
    105 H142       79.9874   58.0825   39.8509 dc         1 CLA      0.063600
    106 H141       81.4223   58.6227   39.0250 dc         1 CLA      0.063600
    107 H122       83.3125   55.6243   40.5100 dc         1 CLA      0.032500
    108 H121       83.4909   57.1133   39.6390 dc         1 CLA      0.032500
    109 H112       82.6791   55.9506   37.5730 dc         1 CLA      0.006600
    110 H111       82.1927   54.6111   38.6149 dc         1 CLA      0.006600
    111 H102       84.5214   54.0666   38.9062 dc         1 CLA      0.024100
    112 H101       85.0629   55.6439   38.6748 dc         1 CLA      0.024100
    113 HHD        71.0531   56.7880   38.4669 da         1 CLA      0.174300
    114 HHC        75.4245   60.4079   41.9399 da         1 CLA      0.136800
    115 HHB        79.5373   59.6678   37.1254 da         1 CLA      0.138300
    116 HBD        75.2445   55.5450   33.1303 dc         1 CLA      0.107700
    117 HAB        76.9904   62.3049   42.1900 da         1 CLA      0.155200
    118 H93        86.4467   53.1992   37.4464 dc         1 CLA      0.069500
    119 H92        86.6982   54.1198   35.9334 dc         1 CLA      0.069500
    120 H91        86.9077   54.8841   37.4484 dc         1 CLA      0.069500
    121 H8         84.8925   55.4540   36.3091 dc         1 CLA      0.029300
    122 H72        82.8416   53.7771   36.3596 dc         1 CLA      0.044400
    123 H71        84.1092   52.4811   36.5958 dc         1 CLA      0.044400
    124 H62        84.9207   53.2256   34.3230 dc         1 CLA      0.015600
    125 H61        83.6431   54.2561   34.1407 dc         1 CLA      0.015600
    126 H52        83.4516   51.2926   34.8823 dc         1 CLA      0.033200
    127 H51        83.5487   51.7507   33.2369 dc         1 CLA      0.033200
    128 H43        81.5656   50.1669   35.2750 dc         1 CLA      0.037000
    129 H42        80.0238   50.8649   34.6882 dc         1 CLA      0.037000
    130 H41        81.1437   50.2494   33.5506 dc         1 CLA      0.037000
    131 H3A        78.9883   58.7645   34.6053 dc         1 CLA      0.041100
    132 H2A        78.3568   55.9156   34.5574 dc         1 CLA      0.083100
    133 H2         80.5828   53.8117   34.9701 da         1 CLA      0.180900
    134 H18        83.2449   60.6021   43.6758 dc         1 CLA     -0.003900
    135 H13        80.9726   55.8592   40.3538 dc         1 CLA      0.019700
    136 H12        79.6841   53.1649   32.5170 dc         1 CLA      0.120400
    137 H11        81.4523   53.5985   32.0636 dc         1 CLA      0.120400
    138 C1         68.1263   60.7108   48.4389 Z1         2 LUT      0.509236
    139 C2         66.8506   60.4231   49.1519 Z2         2 LUT     -0.434695
    140 C3         66.0086   61.6098   49.6188 Z3         2 LUT      0.437453
    141 O3         66.0334   61.7290   51.0527 S1         2 LUT     -0.547129
    142 C4         66.4459   62.9588   48.9362 Z4         2 LUT     -0.468603
    143 C5         66.9226   62.7763   47.5417 Z5         2 LUT      0.279246
    144 C6         67.7301   61.7446   47.2910 Z6         2 LUT     -0.305473
    145 C7         67.9697   61.2925   45.8384 Z7         2 LUT      0.069402
    146 C8         68.9622   61.8590   45.1290 Z8         2 LUT     -0.191631
    147 C9         69.4010   61.5035   43.7418 Z9         2 LUT      0.196698
    148 C10        70.3783   62.3456   43.2116 Y1         2 LUT     -0.208611
    149 C11        71.0689   62.1704   41.9498 Y2         2 LUT      0.030784
    150 C12        72.2537   62.8369   41.6854 Y3         2 LUT     -0.220316
    151 C13        73.0085   62.8221   40.4890 Y4         2 LUT      0.215937
    152 C14        74.2633   63.4088   40.6375 Y5         2 LUT     -0.185793
    153 C15        75.4078   63.5552   39.7758 Y6         2 LUT     -0.057835
    154 C16        68.7526   59.3824   47.9673 Y7         2 LUT     -0.405615
    155 C17        69.1721   61.2164   49.4693 Y7         2 LUT     -0.405615
    156 C18        66.3476   63.6385   46.5163 Y9         2 LUT     -0.369639
    157 C19        68.8545   60.3695   43.0043 W1         2 LUT     -0.333362
    158 C20        72.4304   62.1691   39.2276 W2         2 LUT     -0.323439
    159 C21        86.7970   64.4864   33.7752 Z1         2 LUT      0.406104
    160 C22        87.6321   63.9159   32.6260 Z2         2 LUT     -0.404965
    161 C23        87.6929   64.8673   31.4078 Z3         2 LUT      0.391255
    162 O23        88.3845   64.0432   30.4506 S1         2 LUT     -0.528210
    163 C24        86.3970   65.4565   31.0098 W6         2 LUT     -0.258361
    164 C25        85.4613   65.7217   31.9419 Z5         2 LUT      0.133546
    165 C26        85.4233   64.9972   33.3240 W8         2 LUT     -0.147008
    166 C27        84.7319   65.7407   34.4427 Z7         2 LUT      0.023843
    167 C28        83.5341   65.3561   34.9073 Z8         2 LUT     -0.216987
    168 C29        82.8126   65.8546   36.0827 Z9         2 LUT      0.206524
    169 C30        81.6455   65.2965   36.5135 Y1         2 LUT     -0.215556
    170 C31        80.8480   65.5557   37.7048 Y2         2 LUT      0.025142
    171 C32        79.6716   64.8686   37.9613 Y3         2 LUT     -0.212209
    172 C33        78.7273   65.1070   39.0993 Y4         2 LUT      0.240937
    173 C34        77.6018   64.3553   39.1438 Y5         2 LUT     -0.218862
    174 C35        76.4978   64.3038   40.0245 Y6         2 LUT     -0.023547
    175 C36        87.7396   65.5378   34.3563 Y7         2 LUT     -0.393485
    176 C37        86.6793   63.4360   34.9098 Y7         2 LUT     -0.393485
    177 C38        84.2231   66.5655   31.5969 Y9         2 LUT     -0.387526
    178 C39        83.5222   66.9583   36.8512 W1         2 LUT     -0.322618
    179 C40        79.0700   66.0750   40.2566 W2         2 LUT     -0.358472
    180 H403       78.6454   67.0344   40.0668 R7         2 LUT      0.097720
    181 H402       78.6018   65.7055   41.1979 R7         2 LUT      0.097720
    182 H401       80.1238   66.1251   40.4878 R7         2 LUT      0.097720
    183 H393       84.1198   67.6398   36.1939 R4         2 LUT      0.082505
    184 H392       82.8417   67.5896   37.4307 R4         2 LUT      0.082505
    185 H391       84.2831   66.6726   37.5795 R4         2 LUT      0.082505
    186 H383       84.3045   66.9801   30.5333 R1         2 LUT      0.104030
    187 H382       83.3480   65.9528   31.5721 R1         2 LUT      0.104030
    188 H381       84.0368   67.3949   32.3736 R1         2 LUT      0.104030
    189 H373       86.0483   62.6619   34.4828 T4         2 LUT      0.089537
    190 H372       87.6150   63.1027   35.2978 T4         2 LUT      0.089537
    191 H371       86.0436   63.8119   35.7403 T4         2 LUT      0.089537
    192 H363       88.8006   65.3150   34.6020 T4         2 LUT      0.089537
    193 H362       87.8216   66.3704   33.6977 T4         2 LUT      0.089537
    194 H361       87.1870   65.9188   35.2466 T4         2 LUT      0.089537
    195 H222       88.6992   63.6932   33.0138 U2         2 LUT      0.127376
    196 H221       87.1592   63.0154   32.2387 U2         2 LUT      0.127376
    197 H203       72.0823   61.1968   39.4903 R7         2 LUT      0.087068
    198 H202       71.6124   62.8258   38.9477 R7         2 LUT      0.087068
    199 H201       73.0256   62.1595   38.3496 R7         2 LUT      0.087068
    200 H193       68.0814   59.7189   43.5167 R4         2 LUT      0.089716
    201 H192       68.3869   60.7014   42.0967 R4         2 LUT      0.089716
    202 H191       69.7559   59.7571   42.7793 R4         2 LUT      0.089716
    203 H183       65.3154   63.9667   46.6409 R1         2 LUT      0.094572
    204 H182       66.9372   64.5412   46.3461 R1         2 LUT      0.094572
    205 H181       66.2430   63.1100   45.6090 R1         2 LUT      0.094572
    206 H173       70.0604   61.3046   48.8601 T4         2 LUT      0.093752
    207 H172       68.8829   62.1508   49.8983 T4         2 LUT      0.093752
    208 H171       69.4397   60.4476   50.1906 T4         2 LUT      0.093752
    209 H163       68.9832   58.6937   48.8063 T4         2 LUT      0.093752
    210 H162       68.0844   58.8587   47.2059 T4         2 LUT      0.093752
    211 H161       69.6310   59.6200   47.3426 T4         2 LUT      0.093752
    212 HO3        66.9342   61.7930   51.4922 Q1         2 LUT      0.300121
    213 H8         69.5178   62.6418   45.6340 U7         2 LUT      0.080784
    214 H7         67.4009   60.5200   45.3811 U6         2 LUT      0.042190
    215 H42        65.6254   63.6779   48.8914 U5         2 LUT      0.145166
    216 H41        67.1659   63.5090   49.5749 U5         2 LUT      0.145166
    217 H35        76.5581   64.8007   40.9374 T3         2 LUT      0.077919
    218 H34        77.5286   63.5981   38.3241 T2         2 LUT      0.073626
    219 H32        79.4311   64.0452   37.2010 T1         2 LUT      0.092510
    220 H31        81.1425   66.3687   38.3569 U9         2 LUT      0.070048
    221 H30        81.3583   64.4626   35.8802 U8         2 LUT      0.085442
    222 H3         65.0000   61.3791   49.4067 U3         2 LUT     -0.031596
    223 H28        83.1565   64.4196   34.5299 U7         2 LUT      0.084728
    224 H27        85.1286   66.7184   34.6549 U6         2 LUT      0.087291
    225 H26        84.8519   64.2027   32.9031 Q6         2 LUT      0.075325
    226 H24        86.3400   65.9427   30.0800 Q5         2 LUT      0.094482
    227 H23        88.3812   65.6262   31.6278 U3         2 LUT     -0.024869
    228 H22        66.2979   59.8295   48.5006 U2         2 LUT      0.127376
    229 H21        67.0015   59.6572   49.8993 U2         2 LUT      0.127376
    230 H15        75.3651   63.0648   38.8018 T3         2 LUT      0.093200
    231 H14        74.4606   63.8174   41.5693 T2         2 LUT      0.068865
    232 H12        72.7675   63.4105   42.5295 T1         2 LUT      0.095507
    233 H11        70.5325   61.6416   41.1773 U9         2 LUT      0.068930
    234 H10        70.8188   63.1381   43.7984 U8         2 LUT      0.083911
    235 H1         87.7965   63.6964   29.7480 Q1         2 LUT      0.297311
@<TRIPOS>BOND
    1     6     1 1
    2     7     2 1
    3     8     3 1
    4     9     4 1
    5    11     4 1
    6    12     6 1
    7    13     9 1
    8    16     9 1
    9    25     5 1
   10    25    16 1
   11    26    10 1
   12    26    17 1
   13    27    18 1
   14    28    14 1
   15    28    19 1
   16    29    12 1
   17    30    13 1
   18    31    24 1
   19    32     1 1
   20    32    25 1
   21    33    21 1
   22    33    26 1
   23    34    22 1
   24    34    27 1
   25    35    23 1
   26    35    28 1
   27    36    12 1
   28    36    24 1
   29    37    13 1
   30    37    15 1
   31    38    31 1
   32    39    20 1
   33    39    32 1
   34    40     2 1
   35    40    33 1
   36    41     3 1
   37    41    34 1
   38    42     4 1
   39    42    35 1
   40    43    38 1
   41    44     5 1
   42    44    17 1
   43    44    39 1
   44    45    10 1
   45    45    18 1
   46    45    40 1
   47    46    19 1
   48    46    41 1
   49    47    14 1
   50    47    16 1
   51    47    42 1
   52    48    38 1
   53    49    48 1
   54    50    49 1
   55    51    50 1
   56    52    51 1
   57    53    51 1
   58    54    53 1
   59    55    54 1
   60    56    55 1
   61    57    56 1
   62    58    56 1
   63    59    58 1
   64    60    59 1
   65    61    60 1
   66    62    61 1
   67    63    61 1
   68    64    27 1
   69    64    46 1
   70    65     5 1
   71    65    10 1
   72    65    64 1
   73    65    14 1
   74    66    23 1
   75    67    23 1
   76    68    23 1
   77    69    22 1
   78    70    22 1
   79    71    22 1
   80    72    21 1
   81    73    21 1
   82    74    21 1
   83    75    20 1
   84    76    20 1
   85    77    20 1
   86    78    15 1
   87    79    15 1
   88    80    15 1
   89    81     8 1
   90    82     8 1
   91    83     8 1
   92    84     7 1
   93    85     7 1
   94    86     6 1
   95    87     6 1
   96    88     3 1
   97    89     3 1
   98    90     1 1
   99    91     1 1
  100    92    63 1
  101    93    63 1
  102    94    63 1
  103    95    62 1
  104    96    62 1
  105    97    62 1
  106    98    60 1
  107    99    60 1
  108   100    59 1
  109   101    59 1
  110   102    58 1
  111   103    58 1
  112   104    57 1
  113   105    57 1
  114   106    57 1
  115   107    55 1
  116   108    55 1
  117   109    54 1
  118   110    54 1
  119   111    53 1
  120   112    53 1
  121   113    19 1
  122   114    18 1
  123   115    17 1
  124   116     9 1
  125   117     2 1
  126   118    52 1
  127   119    52 1
  128   120    52 1
  129   121    51 1
  130   122    50 1
  131   123    50 1
  132   124    49 1
  133   125    49 1
  134   126    48 1
  135   127    48 1
  136   128    43 1
  137   129    43 1
  138   130    43 1
  139   131    39 1
  140   132    32 1
  141   133    31 1
  142   134    61 1
  143   135    56 1
  144   136    24 1
  145   137    24 1
  146   139   138 1
  147   140   139 1
  148   141   140 1
  149   142   140 1
  150   143   142 1
  151   144   138 1
  152   144   143 1
  153   145   144 1
  154   146   145 1
  155   147   146 1
  156   148   147 1
  157   149   148 1
  158   150   149 1
  159   151   150 1
  160   152   151 1
  161   153   152 1
  162   154   138 1
  163   155   138 1
  164   156   143 1
  165   157   147 1
  166   158   151 1
  167   160   159 1
  168   161   160 1
  169   162   161 1
  170   163   161 1
  171   164   163 1
  172   165   159 1
  173   165   164 1
  174   166   165 1
  175   167   166 1
  176   168   167 1
  177   169   168 1
  178   170   169 1
  179   171   170 1
  180   172   171 1
  181   173   172 1
  182   174   153 1
  183   174   173 1
  184   175   159 1
  185   176   159 1
  186   177   164 1
  187   178   168 1
  188   179   172 1
  189   180   179 1
  190   181   179 1
  191   182   179 1
  192   183   178 1
  193   184   178 1
  194   185   178 1
  195   186   177 1
  196   187   177 1
  197   188   177 1
  198   189   176 1
  199   190   176 1
  200   191   176 1
  201   192   175 1
  202   193   175 1
  203   194   175 1
  204   195   160 1
  205   196   160 1
  206   197   158 1
  207   198   158 1
  208   199   158 1
  209   200   157 1
  210   201   157 1
  211   202   157 1
  212   203   156 1
  213   204   156 1
  214   205   156 1
  215   206   155 1
  216   207   155 1
  217   208   155 1
  218   209   154 1
  219   210   154 1
  220   211   154 1
  221   212   141 1
  222   213   146 1
  223   214   145 1
  224   215   142 1
  225   216   142 1
  226   217   174 1
  227   218   173 1
  228   219   171 1
  229   220   170 1
  230   221   169 1
  231   222   140 1
  232   223   167 1
  233   224   166 1
  234   225   165 1
  235   226   163 1
  236   227   161 1
  237   228   139 1
  238   229   139 1
  239   230   153 1
  240   231   152 1
  241   232   150 1
  242   233   149 1
  243   234   148 1
  244   235   162 1
  245   65    153 1
  246   65    174 1
@<TRIPOS>SUBSTRUCTURE
      1 CLA               1 ****               0 ****  **** 
      2 LUT             138 ****               0 ****  **** 
