@<TRIPOS>MOLECULE
Cpptraj generated mol2 file.
  235   246     2     0     0
SMALL
USER_CHARGES


@<TRIPOS>ATOM
      1 CAA        78.9995   59.8490   34.8002 a2         1 CLA     -0.055900
      2 CAB        79.0177   63.7895   43.5456 c8         1 CLA     -0.148500
      3 CAC        72.4136   59.1967   43.3615 a2         1 CLA     -0.012600
      4 CAD        74.9276   57.1415   35.8928 ck         1 CLA      0.398800
      5 NA         78.1827   59.9877   38.1468 ns         1 CLA     -0.225500
      6 CBA        80.2980   59.7877   33.9409 a2         1 CLA     -0.135000
      7 CBB        80.0719   64.3773   44.0773 c0         1 CLA     -0.395200
      8 CBC        72.6120   57.7023   43.4789 a3         1 CLA     -0.037700
      9 CBD        76.4090   57.5740   35.6016 a1         1 CLA     -0.053900
     10 NB         78.0378   61.6190   40.7542 nm         1 CLA     -0.295700
     11 OBD        74.3168   56.3954   35.1160 o2         1 CLA     -0.494600
     12 CGA        80.9072   58.4397   33.4176 c4         1 CLA      0.827000
     13 CGD        77.2747   56.4114   35.1407 c4         1 CLA      0.655300
     14 ND         75.4744   59.1352   38.8182 nm         1 CLA     -0.291600
     15 CED        78.3347   54.3760   35.8068 a3         1 CLA      0.005400
     16 CHA        76.8562   58.4597   36.8235 cs         1 CLA     -0.123800
     17 CHB        79.9005   61.4564   39.1232 aa         1 CLA     -0.291900
     18 CHC        76.7963   61.7799   42.8123 aa         1 CLA     -0.090400
     19 CHD        73.6115   59.0429   40.3790 aa         1 CLA     -0.052000
     20 CMA        81.3509   59.0176   37.6253 a3         1 CLA     -0.230700
     21 CMB        81.2297   63.4746   41.1346 a3         1 CLA     -0.180800
     22 CMC        74.3953   61.2818   44.8437 a3         1 CLA     -0.134000
     23 CMD        72.1384   57.4659   37.9670 a3         1 CLA     -0.141100
     24 C1         81.6407   56.2468   34.0851 a2         1 CLA      0.023000
     25 C1A        78.0146   59.2448   37.0632 ac         1 CLA     -0.015100
     26 C1B        79.3242   61.8738   40.3125 cr         1 CLA      0.054700
     27 C1C        75.6597   61.0043   42.5487 cn         1 CLA     -0.005600
     28 C1D        74.2057   58.6833   39.1535 ap         1 CLA     -0.047300
     29 O1A        80.9980   58.0644   32.2370 o2         1 CLA     -0.610800
     30 O1D        77.8156   56.4062   34.0398 o2         1 CLA     -0.558200
     31 C2         82.2368   55.5509   35.3164 c8         1 CLA     -0.325100
     32 C2A        79.3207   59.1509   36.2026 a1         1 CLA      0.098600
     33 C2B        79.9005   62.7583   41.2903 cb         1 CLA      0.088500
     34 C2C        74.5527   60.7627   43.4207 cb         1 CLA      0.053700
     35 C2D        73.5570   57.9098   38.0311 cb         1 CLA      0.058900
     36 O2A        81.3930   57.6647   34.4487 o1         1 CLA     -0.437200
     37 O2D        77.4298   55.4927   36.1176 o1         1 CLA     -0.357600
     38 C3         83.1691   54.6008   35.2903 c5         1 CLA      0.031200
     39 C3A        80.2714   59.9273   37.0372 a1         1 CLA      0.166800
     40 C3B        78.9663   62.9654   42.3451 cb         1 CLA      0.035000
     41 C3C        73.6911   59.8435   42.7852 cb         1 CLA     -0.089900
     42 C3D        74.5979   57.7562   37.1652 cb         1 CLA     -0.035900
     43 C4         82.7969   53.0738   35.2015 a3         1 CLA     -0.053300
     44 C4A        79.3713   60.5385   38.1469 ac         1 CLA      0.001800
     45 C4B        77.8564   62.1499   41.9860 cn         1 CLA     -0.020900
     46 C4C        74.2251   59.7873   41.4301 cr         1 CLA     -0.044400
     47 C4D        75.7529   58.4802   37.6422 c6         1 CLA     -0.046000
     48 C5         84.6605   54.8973   35.1553 a2         1 CLA     -0.070400
     49 C6         85.2819   56.1195   35.8723 a2         1 CLA      0.043900
     50 C7         85.2792   55.9439   37.3853 a2         1 CLA     -0.150000
     51 C8         85.9018   57.1955   38.1942 a1         1 CLA      0.064200
     52 C9         87.4350   57.3867   37.8469 a3         1 CLA     -0.259300
     53 C10        85.6331   57.0246   39.7401 a2         1 CLA     -0.071900
     54 C11        85.7450   58.4271   40.4620 a2         1 CLA      0.014500
     55 C12        86.0044   58.2155   41.9625 a2         1 CLA     -0.112100
     56 C13        85.7704   59.3360   42.9804 a1         1 CLA      0.089200
     57 C14        86.9805   60.4027   42.8649 a3         1 CLA     -0.239100
     58 C15        85.6988   58.8866   44.4418 a2         1 CLA     -0.102200
     59 C16        85.5657   60.0389   45.5296 a2         1 CLA      0.023900
     60 C17        84.7347   59.4438   46.6206 a2         1 CLA     -0.105700
     61 C18        84.6222   60.2538   47.9215 a1         1 CLA      0.206800
     62 C19        83.8059   61.5798   47.9512 a3         1 CLA     -0.280100
     63 C20        83.8982   59.4619   49.0822 a3         1 CLA     -0.280100
     64 NC         75.3584   60.5197   41.3527 nx         1 CLA     -0.309200
     65 MG         76.7118   60.4601   39.6915 mg         1 CLA      0.895000
     66 HMD3       71.8796   57.1521   38.9574 dc         1 CLA      0.064300
     67 HMD2       71.3852   58.1770   37.6006 dc         1 CLA      0.064300
     68 HMD1       72.0557   56.6525   37.2600 dc         1 CLA      0.064300
     69 HMC3       73.3073   61.3250   45.0937 dc         1 CLA      0.052100
     70 HMC2       74.9027   60.6419   45.5398 dc         1 CLA      0.052100
     71 HMC1       74.7134   62.2994   44.8321 dc         1 CLA      0.052100
     72 HMB3       81.5132   63.4596   40.1232 dc         1 CLA      0.063600
     73 HMB2       81.0083   64.5363   41.3113 dc         1 CLA      0.063600
     74 HMB1       82.0418   63.1430   41.7419 dc         1 CLA      0.063600
     75 HMA3       80.8888   58.3338   38.3647 dc         1 CLA      0.058300
     76 HMA2       81.8778   58.3534   36.9971 dc         1 CLA      0.058300
     77 HMA1       82.0545   59.5804   38.2380 dc         1 CLA      0.058300
     78 HED3       77.9437   53.5472   36.4386 dc         1 CLA      0.079300
     79 HED2       78.3987   54.0686   34.7412 dc         1 CLA      0.079300
     80 HED1       79.3395   54.6913   36.1763 dc         1 CLA      0.079300
     81 HBC3       73.5714   57.4872   43.8793 dc         1 CLA      0.016300
     82 HBC2       71.7727   57.3380   44.0847 dc         1 CLA      0.016300
     83 HBC1       72.6051   57.1976   42.4987 dc         1 CLA      0.016300
     84 HBB2       80.0163   64.9352   44.9954 da         1 CLA      0.183000
     85 HBB1       81.0628   64.4437   43.5514 da         1 CLA      0.183000
     86 HBA2       79.9491   60.2385   33.0077 dc         1 CLA      0.029400
     87 HBA1       81.0959   60.3200   34.3932 dc         1 CLA      0.029400
     88 HAC2       72.1426   59.4355   44.3963 dc         1 CLA      0.029300
     89 HAC1       71.5662   59.5043   42.7590 dc         1 CLA      0.029300
     90 HAA2       78.2937   59.2906   34.2209 dc         1 CLA      0.028700
     91 HAA1       78.6721   60.8464   34.8957 dc         1 CLA      0.028700
     92 H203       84.4567   58.5363   49.2282 dc         1 CLA      0.065600
     93 H202       83.9315   60.0740   49.9289 dc         1 CLA      0.065600
     94 H201       82.9151   59.1694   48.7810 dc         1 CLA      0.065600
     95 H193       84.2377   62.3546   47.3316 dc         1 CLA      0.065600
     96 H192       82.7964   61.3123   47.4958 dc         1 CLA      0.065600
     97 H191       83.8281   61.9440   48.9400 dc         1 CLA      0.065600
     98 H172       83.7187   59.1468   46.2091 dc         1 CLA      0.027600
     99 H171       85.3721   58.5517   46.8432 dc         1 CLA      0.027600
    100 H162       86.6053   60.2097   45.8395 dc         1 CLA      0.002900
    101 H161       85.0058   60.9139   45.1503 dc         1 CLA      0.002900
    102 H152       84.7308   58.3320   44.4266 dc         1 CLA      0.029100
    103 H151       86.5917   58.2856   44.7320 dc         1 CLA      0.029100
    104 H143       86.8987   61.2987   43.5678 dc         1 CLA      0.063600
    105 H142       87.9360   60.0261   43.1118 dc         1 CLA      0.063600
    106 H141       87.1839   60.6031   41.7908 dc         1 CLA      0.063600
    107 H122       85.3293   57.4685   42.3106 dc         1 CLA      0.032500
    108 H121       86.8914   57.6812   42.1873 dc         1 CLA      0.032500
    109 H112       86.6854   58.9047   40.1537 dc         1 CLA      0.006600
    110 H111       84.8660   59.0559   40.2574 dc         1 CLA      0.006600
    111 H102       84.6342   56.6200   39.8806 dc         1 CLA      0.024100
    112 H101       86.3209   56.2901   40.1415 dc         1 CLA      0.024100
    113 HHD        72.6496   58.5250   40.6310 da         1 CLA      0.174300
    114 HHC        76.7433   62.1734   43.8223 da         1 CLA      0.136800
    115 HHB        80.9225   61.7421   38.8819 da         1 CLA      0.138300
    116 HBD        76.3800   58.2050   34.7564 dc         1 CLA      0.107700
    117 HAB        78.0301   63.7716   44.1457 da         1 CLA      0.155200
    118 H93        87.9730   56.4186   37.8912 dc         1 CLA      0.069500
    119 H92        87.5782   57.8823   36.9096 dc         1 CLA      0.069500
    120 H91        87.9583   58.0682   38.6208 dc         1 CLA      0.069500
    121 H8         85.3079   58.0371   37.8500 dc         1 CLA      0.029300
    122 H72        84.2234   55.7743   37.7150 dc         1 CLA      0.044400
    123 H71        85.8154   55.0736   37.6735 dc         1 CLA      0.044400
    124 H62        86.3038   56.2733   35.4719 dc         1 CLA      0.015600
    125 H61        84.6384   56.9936   35.7851 dc         1 CLA      0.015600
    126 H52        85.2133   54.0213   35.5003 dc         1 CLA      0.033200
    127 H51        84.8485   54.9860   34.0849 dc         1 CLA      0.033200
    128 H43        81.7254   53.1350   35.2044 dc         1 CLA      0.037000
    129 H42        83.0630   52.4902   34.2653 dc         1 CLA      0.037000
    130 H41        83.0156   52.5262   36.1281 dc         1 CLA      0.037000
    131 H3A        80.7188   60.6893   36.4695 dc         1 CLA      0.041100
    132 H2A        79.6265   58.1166   36.2080 dc         1 CLA      0.083100
    133 H2         81.9921   55.9791   36.3085 da         1 CLA      0.180900
    134 H18        85.6051   60.4622   48.2740 dc         1 CLA     -0.003900
    135 H13        84.8989   59.8237   42.6512 dc         1 CLA      0.019700
    136 H12        80.6752   55.7435   34.0220 dc         1 CLA      0.120400
    137 H11        82.2095   56.1547   33.1803 dc         1 CLA      0.120400
    138 C1         68.9261   62.1649   50.1395 Z1         2 LUT      0.509236
    139 C2         67.5365   61.7343   50.5717 Z2         2 LUT     -0.434695
    140 C3         66.5574   62.8767   51.0122 Z3         2 LUT      0.437453
    141 O3         66.7160   63.1998   52.4006 S1         2 LUT     -0.547129
    142 C4         66.8512   64.1574   50.2017 Z4         2 LUT     -0.468603
    143 C5         67.6385   64.0083   48.9016 Z5         2 LUT      0.279246
    144 C6         68.6612   63.0876   48.8501 Z6         2 LUT     -0.305473
    145 C7         69.2447   62.5010   47.5586 Z7         2 LUT      0.069402
    146 C8         69.9899   63.2800   46.7804 Z8         2 LUT     -0.191631
    147 C9         70.4404   63.0005   45.3923 Z9         2 LUT      0.196698
    148 C10        71.4384   63.7854   44.8238 Y1         2 LUT     -0.208611
    149 C11        72.1835   63.6484   43.5927 Y2         2 LUT      0.030784
    150 C12        73.2146   64.4354   43.2316 Y3         2 LUT     -0.220316
    151 C13        74.1555   64.2050   42.1828 Y4         2 LUT      0.215937
    152 C14        75.3071   64.9429   42.1753 Y5         2 LUT     -0.185793
    153 C15        76.4584   64.9223   41.2930 Y6         2 LUT     -0.057835
    154 C16        69.6666   60.9049   49.9753 Y7         2 LUT     -0.405615
    155 C17        69.5608   62.8855   51.3952 Y7         2 LUT     -0.405615
    156 C18        67.0255   64.6414   47.6757 Y9         2 LUT     -0.369639
    157 C19        69.7955   61.8028   44.8028 W1         2 LUT     -0.333362
    158 C20        73.5469   63.6096   40.9465 W2         2 LUT     -0.323439
    159 C21        87.9541   66.5731   35.6018 Z1         2 LUT      0.406104
    160 C22        88.7028   66.1269   34.3783 Z2         2 LUT     -0.404965
    161 C23        88.8868   67.2509   33.3651 Z3         2 LUT      0.391255
    162 O23        89.7156   66.7030   32.2819 S1         2 LUT     -0.528210
    163 C24        87.5223   67.9188   33.0272 W6         2 LUT     -0.258361
    164 C25        86.4771   67.9342   33.9311 Z5         2 LUT      0.133546
    165 C26        86.5001   67.1219   35.1988 W8         2 LUT     -0.147008
    166 C27        85.6525   67.8592   36.2292 Z7         2 LUT      0.023843
    167 C28        84.6042   67.3078   36.8950 Z8         2 LUT     -0.216987
    168 C29        83.8273   67.7501   38.0870 Z9         2 LUT      0.206524
    169 C30        82.7720   67.1169   38.5251 Y1         2 LUT     -0.215556
    170 C31        81.9423   67.3225   39.6906 Y2         2 LUT      0.025142
    171 C32        80.7135   66.7301   39.8518 Y3         2 LUT     -0.212209
    172 C33        79.7240   66.8526   40.8788 Y4         2 LUT      0.240937
    173 C34        78.6425   66.0220   40.7356 Y5         2 LUT     -0.218862
    174 C35        77.4561   65.8398   41.5305 Y6         2 LUT     -0.023547
    175 C36        88.8600   67.5395   36.3886 Y7         2 LUT     -0.393485
    176 C37        87.9260   65.4220   36.6698 Y7         2 LUT     -0.393485
    177 C38        85.1277   68.6223   33.5679 Y9         2 LUT     -0.387526
    178 C39        84.4449   68.9840   38.7866 W1         2 LUT     -0.322618
    179 C40        80.0323   67.5831   42.1792 W2         2 LUT     -0.358472
    180 H403       81.0982   67.5441   42.4509 R7         2 LUT      0.097720
    181 H402       79.7997   68.6454   42.2075 R7         2 LUT      0.097720
    182 H401       79.5596   67.1042   43.0349 R7         2 LUT      0.097720
    183 H393       84.9607   69.7189   38.1075 R4         2 LUT      0.082505
    184 H392       83.7148   69.4595   39.3120 R4         2 LUT      0.082505
    185 H391       85.1875   68.6482   39.5111 R4         2 LUT      0.082505
    186 H383       84.8175   69.2692   34.3898 R1         2 LUT      0.104030
    187 H382       85.2072   69.1047   32.6268 R1         2 LUT      0.104030
    188 H381       84.4248   67.8224   33.5185 R1         2 LUT      0.104030
    189 H373       87.2924   64.5654   36.4032 T4         2 LUT      0.089537
    190 H372       88.8840   65.0109   36.9244 T4         2 LUT      0.089537
    191 H371       87.5423   65.8358   37.6427 T4         2 LUT      0.089537
    192 H363       89.6837   67.0796   36.9833 T4         2 LUT      0.089537
    193 H362       89.3587   68.3611   35.8080 T4         2 LUT      0.089537
    194 H361       88.2224   68.0467   37.1433 T4         2 LUT      0.089537
    195 H222       89.6711   65.6958   34.6870 U2         2 LUT      0.127376
    196 H221       88.1089   65.3559   33.9854 U2         2 LUT      0.127376
    197 H203       72.5503   63.8123   40.7499 R7         2 LUT      0.087068
    198 H202       73.9707   64.0953   40.0832 R7         2 LUT      0.087068
    199 H201       73.6431   62.4958   40.8592 R7         2 LUT      0.087068
    200 H193       70.1720   60.8307   45.0361 R4         2 LUT      0.089716
    201 H192       68.7180   61.8792   44.7933 R4         2 LUT      0.089716
    202 H191       69.9371   61.8654   43.7676 R4         2 LUT      0.089716
    203 H183       67.5485   65.6476   47.5593 R1         2 LUT      0.094572
    204 H182       67.2529   64.0885   46.7601 R1         2 LUT      0.094572
    205 H181       65.9005   64.8620   47.8054 R1         2 LUT      0.094572
    206 H173       70.5720   63.3288   51.2056 T4         2 LUT      0.093752
    207 H172       68.9887   63.6411   51.8825 T4         2 LUT      0.093752
    208 H171       69.5771   62.2204   52.2226 T4         2 LUT      0.093752
    209 H163       69.1844   60.1295   49.3087 T4         2 LUT      0.093752
    210 H162       70.6277   61.1598   49.5918 T4         2 LUT      0.093752
    211 H161       70.0143   60.4122   50.9184 T4         2 LUT      0.093752
    212 HO3        66.5371   62.4444   53.0234 Q1         2 LUT      0.300121
    213 H8         70.1567   64.3107   47.1999 U7         2 LUT      0.080784
    214 H7         68.8394   61.5451   47.3401 U6         2 LUT      0.042190
    215 H42        65.9710   64.7676   50.0938 U5         2 LUT      0.145166
    216 H41        67.3626   64.8831   50.8837 U5         2 LUT      0.145166
    217 H35        77.3879   66.5491   42.3860 T3         2 LUT      0.077919
    218 H34        78.6536   65.3812   39.9004 T2         2 LUT      0.073626
    219 H32        80.3956   66.0987   39.0523 T1         2 LUT      0.092510
    220 H31        82.3484   68.0460   40.4480 U9         2 LUT      0.070048
    221 H30        82.3715   66.2252   38.0181 U8         2 LUT      0.085442
    222 H3         65.5898   62.5112   50.6915 U3         2 LUT     -0.031596
    223 H28        84.0646   66.3398   36.5369 U7         2 LUT      0.084728
    224 H27        86.0948   68.7988   36.5310 U6         2 LUT      0.087291
    225 H26        85.9264   66.1807   34.8809 Q6         2 LUT      0.075325
    226 H24        87.7096   68.5535   32.1203 Q5         2 LUT      0.094482
    227 H23        89.5064   68.0671   33.8030 U3         2 LUT     -0.024869
    228 H22        67.1154   61.2994   49.6748 U2         2 LUT      0.127376
    229 H21        67.5169   60.9318   51.2760 U2         2 LUT      0.127376
    230 H15        76.4020   64.1817   40.5346 T3         2 LUT      0.093200
    231 H14        75.3132   65.7327   43.0102 T2         2 LUT      0.068865
    232 H12        73.3592   65.3332   43.7828 T1         2 LUT      0.095507
    233 H11        72.0095   62.6669   43.0889 U9         2 LUT      0.068930
    234 H10        71.7286   64.6704   45.4053 U8         2 LUT      0.083911
    235 H1         89.1965   66.3367   31.5486 Q1         2 LUT      0.297311
@<TRIPOS>BOND
    1     6     1 1
    2     7     2 1
    3     8     3 1
    4     9     4 1
    5    11     4 1
    6    12     6 1
    7    13     9 1
    8    16     9 1
    9    25     5 1
   10    25    16 1
   11    26    10 1
   12    26    17 1
   13    27    18 1
   14    28    14 1
   15    28    19 1
   16    29    12 1
   17    30    13 1
   18    31    24 1
   19    32     1 1
   20    32    25 1
   21    33    21 1
   22    33    26 1
   23    34    22 1
   24    34    27 1
   25    35    23 1
   26    35    28 1
   27    36    12 1
   28    36    24 1
   29    37    13 1
   30    37    15 1
   31    38    31 1
   32    39    20 1
   33    39    32 1
   34    40     2 1
   35    40    33 1
   36    41     3 1
   37    41    34 1
   38    42     4 1
   39    42    35 1
   40    43    38 1
   41    44     5 1
   42    44    17 1
   43    44    39 1
   44    45    10 1
   45    45    18 1
   46    45    40 1
   47    46    19 1
   48    46    41 1
   49    47    14 1
   50    47    16 1
   51    47    42 1
   52    48    38 1
   53    49    48 1
   54    50    49 1
   55    51    50 1
   56    52    51 1
   57    53    51 1
   58    54    53 1
   59    55    54 1
   60    56    55 1
   61    57    56 1
   62    58    56 1
   63    59    58 1
   64    60    59 1
   65    61    60 1
   66    62    61 1
   67    63    61 1
   68    64    27 1
   69    64    46 1
   70    65     5 1
   71    65    10 1
   72    65    64 1
   73    65    14 1
   74    66    23 1
   75    67    23 1
   76    68    23 1
   77    69    22 1
   78    70    22 1
   79    71    22 1
   80    72    21 1
   81    73    21 1
   82    74    21 1
   83    75    20 1
   84    76    20 1
   85    77    20 1
   86    78    15 1
   87    79    15 1
   88    80    15 1
   89    81     8 1
   90    82     8 1
   91    83     8 1
   92    84     7 1
   93    85     7 1
   94    86     6 1
   95    87     6 1
   96    88     3 1
   97    89     3 1
   98    90     1 1
   99    91     1 1
  100    92    63 1
  101    93    63 1
  102    94    63 1
  103    95    62 1
  104    96    62 1
  105    97    62 1
  106    98    60 1
  107    99    60 1
  108   100    59 1
  109   101    59 1
  110   102    58 1
  111   103    58 1
  112   104    57 1
  113   105    57 1
  114   106    57 1
  115   107    55 1
  116   108    55 1
  117   109    54 1
  118   110    54 1
  119   111    53 1
  120   112    53 1
  121   113    19 1
  122   114    18 1
  123   115    17 1
  124   116     9 1
  125   117     2 1
  126   118    52 1
  127   119    52 1
  128   120    52 1
  129   121    51 1
  130   122    50 1
  131   123    50 1
  132   124    49 1
  133   125    49 1
  134   126    48 1
  135   127    48 1
  136   128    43 1
  137   129    43 1
  138   130    43 1
  139   131    39 1
  140   132    32 1
  141   133    31 1
  142   134    61 1
  143   135    56 1
  144   136    24 1
  145   137    24 1
  146   139   138 1
  147   140   139 1
  148   141   140 1
  149   142   140 1
  150   143   142 1
  151   144   138 1
  152   144   143 1
  153   145   144 1
  154   146   145 1
  155   147   146 1
  156   148   147 1
  157   149   148 1
  158   150   149 1
  159   151   150 1
  160   152   151 1
  161   153   152 1
  162   154   138 1
  163   155   138 1
  164   156   143 1
  165   157   147 1
  166   158   151 1
  167   160   159 1
  168   161   160 1
  169   162   161 1
  170   163   161 1
  171   164   163 1
  172   165   159 1
  173   165   164 1
  174   166   165 1
  175   167   166 1
  176   168   167 1
  177   169   168 1
  178   170   169 1
  179   171   170 1
  180   172   171 1
  181   173   172 1
  182   174   153 1
  183   174   173 1
  184   175   159 1
  185   176   159 1
  186   177   164 1
  187   178   168 1
  188   179   172 1
  189   180   179 1
  190   181   179 1
  191   182   179 1
  192   183   178 1
  193   184   178 1
  194   185   178 1
  195   186   177 1
  196   187   177 1
  197   188   177 1
  198   189   176 1
  199   190   176 1
  200   191   176 1
  201   192   175 1
  202   193   175 1
  203   194   175 1
  204   195   160 1
  205   196   160 1
  206   197   158 1
  207   198   158 1
  208   199   158 1
  209   200   157 1
  210   201   157 1
  211   202   157 1
  212   203   156 1
  213   204   156 1
  214   205   156 1
  215   206   155 1
  216   207   155 1
  217   208   155 1
  218   209   154 1
  219   210   154 1
  220   211   154 1
  221   212   141 1
  222   213   146 1
  223   214   145 1
  224   215   142 1
  225   216   142 1
  226   217   174 1
  227   218   173 1
  228   219   171 1
  229   220   170 1
  230   221   169 1
  231   222   140 1
  232   223   167 1
  233   224   166 1
  234   225   165 1
  235   226   163 1
  236   227   161 1
  237   228   139 1
  238   229   139 1
  239   230   153 1
  240   231   152 1
  241   232   150 1
  242   233   149 1
  243   234   148 1
  244   235   162 1
  245   65    153 1
  246   65    174 1
@<TRIPOS>SUBSTRUCTURE
      1 CLA               1 ****               0 ****  **** 
      2 LUT             138 ****               0 ****  **** 
