@<TRIPOS>MOLECULE
Cpptraj generated mol2 file.
  235   246     2     0     0
SMALL
USER_CHARGES


@<TRIPOS>ATOM
      1 CAA        79.1796   59.2951   33.8366 a2         1 CLA     -0.055900
      2 CAB        78.9924   62.8756   42.8039 c8         1 CLA     -0.148500
      3 CAC        72.1327   58.7059   42.1804 a2         1 CLA     -0.012600
      4 CAD        74.7859   56.9321   34.6488 ck         1 CLA      0.398800
      5 NA         78.0307   59.4244   37.1343 ns         1 CLA     -0.225500
      6 CBA        80.4236   59.2182   32.9941 a2         1 CLA     -0.135000
      7 CBB        80.1080   63.5125   43.2392 c0         1 CLA     -0.395200
      8 CBC        72.5223   57.3102   42.4689 a3         1 CLA     -0.037700
      9 CBD        76.2942   57.3813   34.4928 a1         1 CLA     -0.053900
     10 NB         78.0194   60.7675   39.8232 nm         1 CLA     -0.295700
     11 OBD        74.1758   56.2988   33.8109 o2         1 CLA     -0.494600
     12 CGA        80.8934   57.8522   32.5312 c4         1 CLA      0.827000
     13 CGD        77.2383   56.1896   34.2594 c4         1 CLA      0.655300
     14 ND         75.1703   58.7079   37.6357 nm         1 CLA     -0.291600
     15 CED        77.6834   53.9814   35.1253 a3         1 CLA      0.005400
     16 CHA        76.6406   58.2413   35.6557 cs         1 CLA     -0.123800
     17 CHB        79.9159   60.6127   38.2237 aa         1 CLA     -0.291900
     18 CHC        76.5547   61.2139   41.7448 aa         1 CLA     -0.090400
     19 CHD        73.4020   58.5134   39.2673 aa         1 CLA     -0.052000
     20 CMA        81.3250   58.2840   36.6580 a3         1 CLA     -0.230700
     21 CMB        81.3604   62.3812   40.3709 a3         1 CLA     -0.180800
     22 CMC        74.1549   60.6583   43.8444 a3         1 CLA     -0.134000
     23 CMD        72.1042   56.8675   36.7464 a3         1 CLA     -0.141100
     24 C1         82.4234   56.1077   32.9609 a2         1 CLA      0.023000
     25 C1A        77.8699   58.7878   35.9565 ac         1 CLA     -0.015100
     26 C1B        79.3095   61.0358   39.4239 cr         1 CLA      0.054700
     27 C1C        75.3884   60.5191   41.4817 cn         1 CLA     -0.005600
     28 C1D        73.9810   58.2180   38.0304 ap         1 CLA     -0.047300
     29 O1A        80.7687   57.4362   31.3914 o2         1 CLA     -0.610800
     30 O1D        78.0886   56.1944   33.3763 o2         1 CLA     -0.558200
     31 C2         82.9958   55.4894   34.1959 c8         1 CLA     -0.325100
     32 C2A        79.2342   58.6039   35.1936 a1         1 CLA      0.098600
     33 C2B        79.9565   61.8075   40.5250 cb         1 CLA      0.088500
     34 C2C        74.2617   60.2700   42.3676 cb         1 CLA      0.053700
     35 C2D        73.4237   57.5212   36.8609 cb         1 CLA      0.058900
     36 O2A        81.7420   57.2631   33.4112 o1         1 CLA     -0.437200
     37 O2D        76.8946   55.1945   35.1526 o1         1 CLA     -0.357600
     38 C3         83.9898   54.6549   34.2436 c5         1 CLA      0.031200
     39 C3A        80.2791   59.2760   36.1367 a1         1 CLA      0.166800
     40 C3B        78.9465   62.0461   41.5648 cb         1 CLA      0.035000
     41 C3C        73.3273   59.5010   41.6101 cb         1 CLA     -0.089900
     42 C3D        74.4257   57.4650   35.9537 cb         1 CLA     -0.035900
     43 C4         83.6732   53.1427   34.4713 a3         1 CLA     -0.053300
     44 C4A        79.4072   59.7991   37.2378 ac         1 CLA      0.001800
     45 C4B        77.7384   61.3966   41.0618 cn         1 CLA     -0.020900
     46 C4C        73.9837   59.3209   40.2963 cr         1 CLA     -0.044400
     47 C4D        75.4842   58.2676   36.4425 c6         1 CLA     -0.046000
     48 C5         85.4026   55.1804   34.0479 a2         1 CLA     -0.070400
     49 C6         85.7407   56.5156   34.8699 a2         1 CLA      0.043900
     50 C7         85.7032   56.1102   36.3596 a2         1 CLA     -0.150000
     51 C8         86.1977   57.1420   37.3660 a1         1 CLA      0.064200
     52 C9         87.7085   57.4818   37.2552 a3         1 CLA     -0.259300
     53 C10        85.8744   56.7413   38.8376 a2         1 CLA     -0.071900
     54 C11        85.9900   57.9126   39.8079 a2         1 CLA      0.014500
     55 C12        86.1041   57.6301   41.3238 a2         1 CLA     -0.112100
     56 C13        86.2733   58.8130   42.2746 a1         1 CLA      0.089200
     57 C14        87.8333   59.2277   42.4978 a3         1 CLA     -0.239100
     58 C15        85.7169   58.4084   43.6594 a2         1 CLA     -0.102200
     59 C16        85.7762   59.5351   44.7285 a2         1 CLA      0.023900
     60 C17        85.0244   59.1916   46.0344 a2         1 CLA     -0.105700
     61 C18        85.0100   60.0745   47.2345 a1         1 CLA      0.206800
     62 C19        84.2981   61.4604   46.9658 a3         1 CLA     -0.280100
     63 C20        84.2163   59.5099   48.4849 a3         1 CLA     -0.280100
     64 NC         75.2550   59.8734   40.2837 nx         1 CLA     -0.309200
     65 MG         76.5804   59.8293   38.6831 mg         1 CLA      0.895000
     66 HMD3       71.4177   57.6891   36.4130 dc         1 CLA      0.064300
     67 HMD2       72.1132   55.9815   36.1116 dc         1 CLA      0.064300
     68 HMD1       71.7416   56.4947   37.6656 dc         1 CLA      0.064300
     69 HMC3       75.0539   60.4948   44.3741 dc         1 CLA      0.052100
     70 HMC2       73.9930   61.7347   43.9476 dc         1 CLA      0.052100
     71 HMC1       73.2926   60.2426   44.3570 dc         1 CLA      0.052100
     72 HMB3       81.7878   62.0583   39.4454 dc         1 CLA      0.063600
     73 HMB2       81.1148   63.4400   40.3724 dc         1 CLA      0.063600
     74 HMB1       81.9806   62.0574   41.2005 dc         1 CLA      0.063600
     75 HMA3       80.7362   57.3686   36.8090 dc         1 CLA      0.058300
     76 HMA2       82.1112   58.0950   35.8839 dc         1 CLA      0.058300
     77 HMA1       81.8450   58.5871   37.5666 dc         1 CLA      0.058300
     78 HED3       78.7677   54.2280   35.0933 dc         1 CLA      0.079300
     79 HED2       77.4778   53.3217   35.8966 dc         1 CLA      0.079300
     80 HED1       77.4223   53.5673   34.1500 dc         1 CLA      0.079300
     81 HBC3       73.0220   56.9005   41.5542 dc         1 CLA      0.016300
     82 HBC2       73.2202   57.2110   43.3389 dc         1 CLA      0.016300
     83 HBC1       71.5977   56.6932   42.6256 dc         1 CLA      0.016300
     84 HBB2       79.9537   64.0723   44.1791 da         1 CLA      0.183000
     85 HBB1       81.1290   63.3699   42.8098 da         1 CLA      0.183000
     86 HBA2       80.2203   59.7009   32.0877 dc         1 CLA      0.029400
     87 HBA1       81.2394   59.7598   33.5675 dc         1 CLA      0.029400
     88 HAC2       71.8569   59.1418   43.1976 dc         1 CLA      0.029300
     89 HAC1       71.2832   58.7398   41.5178 dc         1 CLA      0.029300
     90 HAA2       78.3395   58.9079   33.1805 dc         1 CLA      0.028700
     91 HAA1       78.9599   60.3941   33.9598 dc         1 CLA      0.028700
     92 H203       84.7110   58.5133   48.6446 dc         1 CLA      0.065600
     93 H202       84.3110   60.2238   49.3829 dc         1 CLA      0.065600
     94 H201       83.2141   59.2607   48.3532 dc         1 CLA      0.065600
     95 H193       84.6908   61.8986   46.1291 dc         1 CLA      0.065600
     96 H192       83.2292   61.4078   46.7731 dc         1 CLA      0.065600
     97 H191       84.4572   62.0967   47.8305 dc         1 CLA      0.065600
     98 H172       83.9850   59.0170   45.8822 dc         1 CLA      0.027600
     99 H171       85.5644   58.3268   46.3595 dc         1 CLA      0.027600
    100 H162       86.7570   59.8756   44.9715 dc         1 CLA      0.002900
    101 H161       85.2027   60.2951   44.2897 dc         1 CLA      0.002900
    102 H152       84.6330   58.2053   43.4204 dc         1 CLA      0.029100
    103 H151       86.0163   57.4654   44.1142 dc         1 CLA      0.029100
    104 H143       88.3266   58.4631   43.0943 dc         1 CLA      0.063600
    105 H142       88.3425   59.3143   41.5400 dc         1 CLA      0.063600
    106 H141       87.9049   60.2591   42.9215 dc         1 CLA      0.063600
    107 H122       85.1030   57.2828   41.5033 dc         1 CLA      0.032500
    108 H121       86.6681   56.7218   41.5207 dc         1 CLA      0.032500
    109 H112       86.9129   58.3756   39.5507 dc         1 CLA      0.006600
    110 H111       85.1349   58.5237   39.5317 dc         1 CLA      0.006600
    111 H102       84.8239   56.3768   38.8646 dc         1 CLA      0.024100
    112 H101       86.5740   56.0818   39.2441 dc         1 CLA      0.024100
    113 HHD        72.3639   58.2201   39.1874 da         1 CLA      0.174300
    114 HHC        76.6411   61.6451   42.7695 da         1 CLA      0.136800
    115 HHB        80.9848   60.9366   38.1046 da         1 CLA      0.138300
    116 HBD        76.3000   58.0273   33.6343 dc         1 CLA      0.107700
    117 HAB        78.0764   63.1294   43.4500 da         1 CLA      0.155200
    118 H93        88.0798   57.0694   36.2908 dc         1 CLA      0.069500
    119 H92        87.8319   58.5031   37.1632 dc         1 CLA      0.069500
    120 H91        88.2362   57.0200   38.0638 dc         1 CLA      0.069500
    121 H8         85.6460   57.9909   37.1544 dc         1 CLA      0.029300
    122 H72        84.6645   55.8564   36.5838 dc         1 CLA      0.044400
    123 H71        86.3127   55.2062   36.4545 dc         1 CLA      0.044400
    124 H62        86.7658   56.6783   34.5969 dc         1 CLA      0.015600
    125 H61        84.9366   57.2404   34.5836 dc         1 CLA      0.015600
    126 H52        86.2426   54.4630   34.1645 dc         1 CLA      0.033200
    127 H51        85.5266   55.4328   33.0352 dc         1 CLA      0.033200
    128 H43        84.4351   52.5477   33.9064 dc         1 CLA      0.037000
    129 H42        83.7566   52.9579   35.5614 dc         1 CLA      0.037000
    130 H41        82.6602   52.8442   34.1615 dc         1 CLA      0.037000
    131 H3A        80.8002   60.0999   35.7050 dc         1 CLA      0.041100
    132 H2A        79.5471   57.5787   35.0325 dc         1 CLA      0.083100
    133 H2         82.7305   55.8333   35.2175 da         1 CLA      0.180900
    134 H18        85.9853   60.3202   47.5958 dc         1 CLA     -0.003900
    135 H13        85.6684   59.5439   41.7660 dc         1 CLA      0.019700
    136 H12        81.7892   55.4007   32.4199 dc         1 CLA      0.120400
    137 H11        83.2907   56.2900   32.2482 dc         1 CLA      0.120400
    138 C1         69.0386   61.6810   49.5480 Z1         2 LUT      0.509236
    139 C2         67.6475   61.5329   50.1783 Z2         2 LUT     -0.434695
    140 C3         66.7200   62.7555   50.4634 Z3         2 LUT      0.437453
    141 O3         66.7858   63.0933   51.8494 S1         2 LUT     -0.547129
    142 C4         67.2479   63.9194   49.6825 Z4         2 LUT     -0.468603
    143 C5         67.8079   63.6106   48.3999 Z5         2 LUT      0.279246
    144 C6         68.7029   62.5924   48.2732 Z6         2 LUT     -0.305473
    145 C7         69.2344   62.2483   47.0211 Z7         2 LUT      0.069402
    146 C8         70.0064   63.0516   46.2482 Z8         2 LUT     -0.191631
    147 C9         70.3500   62.8260   44.8360 Z9         2 LUT      0.196698
    148 C10        71.4274   63.6215   44.4421 Y1         2 LUT     -0.208611
    149 C11        72.1433   63.5195   43.1962 Y2         2 LUT      0.030784
    150 C12        73.2797   64.2801   42.9422 Y3         2 LUT     -0.220316
    151 C13        74.1781   64.2567   41.8515 Y4         2 LUT      0.215937
    152 C14        75.3698   64.9503   41.9571 Y5         2 LUT     -0.185793
    153 C15        76.4930   64.9291   41.0902 Y6         2 LUT     -0.057835
    154 C16        69.5525   60.2738   49.1728 Y7         2 LUT     -0.405615
    155 C17        70.0536   62.2856   50.5382 Y7         2 LUT     -0.405615
    156 C18        67.1440   64.3990   47.3520 Y9         2 LUT     -0.369639
    157 C19        69.5802   61.7740   44.1210 W1         2 LUT     -0.333362
    158 C20        73.6871   63.4654   40.6728 W2         2 LUT     -0.323439
    159 C21        87.4203   66.8085   35.0740 Z1         2 LUT      0.406104
    160 C22        88.5316   66.4930   34.0815 Z2         2 LUT     -0.404965
    161 C23        88.6707   67.5162   32.9384 Z3         2 LUT      0.391255
    162 O23        89.5756   67.1158   31.9214 S1         2 LUT     -0.528210
    163 C24        87.3085   68.0652   32.4374 W6         2 LUT     -0.258361
    164 C25        86.1174   67.8191   33.0132 Z5         2 LUT      0.133546
    165 C26        86.0018   67.0356   34.3410 W8         2 LUT     -0.147008
    166 C27        84.9945   67.6091   35.2485 Z7         2 LUT      0.023843
    167 C28        84.2664   66.9201   36.1879 Z8         2 LUT     -0.216987
    168 C29        83.6304   67.4264   37.3751 Z9         2 LUT      0.206524
    169 C30        82.6613   66.5579   37.9303 Y1         2 LUT     -0.215556
    170 C31        81.9149   66.8354   39.1406 Y2         2 LUT      0.025142
    171 C32        80.8084   66.2081   39.4839 Y3         2 LUT     -0.212209
    172 C33        79.8686   66.4398   40.5464 Y4         2 LUT      0.240937
    173 C34        78.7115   65.7404   40.4400 Y5         2 LUT     -0.218862
    174 C35        77.5925   65.6906   41.3509 Y6         2 LUT     -0.023547
    175 C36        87.8155   68.1083   35.7870 Y7         2 LUT     -0.393485
    176 C37        87.4907   65.6789   36.1427 Y7         2 LUT     -0.393485
    177 C38        84.8371   68.3828   32.5671 Y9         2 LUT     -0.387526
    178 C39        83.8333   68.8722   37.8315 W1         2 LUT     -0.322618
    179 C40        80.2720   67.4315   41.6972 W2         2 LUT     -0.358472
    180 H403       79.6758   67.3608   42.5963 R7         2 LUT      0.097720
    181 H402       81.2925   67.1626   41.9717 R7         2 LUT      0.097720
    182 H401       80.1805   68.4942   41.4429 R7         2 LUT      0.097720
    183 H393       84.8838   68.9976   38.1606 R4         2 LUT      0.082505
    184 H392       83.6964   69.5727   37.0067 R4         2 LUT      0.082505
    185 H391       83.1646   69.2009   38.7195 R4         2 LUT      0.082505
    186 H383       84.0756   67.6336   32.4835 R1         2 LUT      0.104030
    187 H382       84.5434   69.1291   33.2956 R1         2 LUT      0.104030
    188 H381       84.8070   69.0052   31.6612 R1         2 LUT      0.104030
    189 H373       87.1714   64.6903   35.7215 T4         2 LUT      0.089537
    190 H372       88.5303   65.7044   36.5531 T4         2 LUT      0.089537
    191 H371       86.8528   65.9022   37.0112 T4         2 LUT      0.089537
    192 H363       87.5217   69.0605   35.2151 T4         2 LUT      0.089537
    193 H362       87.1848   68.2279   36.6586 T4         2 LUT      0.089537
    194 H361       88.8584   68.1176   36.0974 T4         2 LUT      0.089537
    195 H222       89.4895   66.4425   34.5893 U2         2 LUT      0.127376
    196 H221       88.3619   65.4771   33.7282 U2         2 LUT      0.127376
    197 H203       74.5855   63.0855   40.0860 R7         2 LUT      0.087068
    198 H202       73.1303   62.5613   40.8417 R7         2 LUT      0.087068
    199 H201       73.1671   64.1232   39.9455 R7         2 LUT      0.087068
    200 H193       69.8603   60.7914   44.4788 R4         2 LUT      0.089716
    201 H192       68.4955   61.7921   44.3333 R4         2 LUT      0.089716
    202 H191       69.7818   61.7808   43.0607 R4         2 LUT      0.089716
    203 H183       67.5568   65.4284   47.5623 R1         2 LUT      0.094572
    204 H182       67.4968   64.1382   46.3083 R1         2 LUT      0.094572
    205 H181       66.0479   64.3591   47.4769 R1         2 LUT      0.094572
    206 H173       70.3102   61.5868   51.2977 T4         2 LUT      0.093752
    207 H172       70.9484   62.5426   49.9562 T4         2 LUT      0.093752
    208 H171       69.6265   63.1898   51.0090 T4         2 LUT      0.093752
    209 H163       68.9709   59.7910   48.3371 T4         2 LUT      0.093752
    210 H162       70.6171   60.2836   48.9781 T4         2 LUT      0.093752
    211 H161       69.4993   59.5325   49.9410 T4         2 LUT      0.093752
    212 HO3        65.9960   62.7856   52.2532 Q1         2 LUT      0.300121
    213 H8         70.2088   64.0614   46.5815 U7         2 LUT      0.080784
    214 H7         68.9124   61.2919   46.6860 U6         2 LUT      0.042190
    215 H42        66.6173   64.8036   49.7198 U5         2 LUT      0.145166
    216 H41        67.9965   64.4174   50.3134 U5         2 LUT      0.145166
    217 H35        77.5691   66.3117   42.2524 T3         2 LUT      0.077919
    218 H34        78.6616   65.0487   39.6120 T2         2 LUT      0.073626
    219 H32        80.5254   65.3571   38.8461 T1         2 LUT      0.092510
    220 H31        82.1820   67.6867   39.7343 U9         2 LUT      0.070048
    221 H30        82.3735   65.5696   37.5986 U8         2 LUT      0.085442
    222 H3         65.7177   62.3205   50.1101 U3         2 LUT     -0.031596
    223 H28        84.0202   65.9172   35.9613 U7         2 LUT      0.084728
    224 H27        85.1969   68.6304   35.5103 U6         2 LUT      0.087291
    225 H26        85.7395   65.9393   34.1600 Q6         2 LUT      0.075325
    226 H24        87.3137   68.5694   31.5406 Q5         2 LUT      0.094482
    227 H23        89.1452   68.3689   33.4295 U3         2 LUT     -0.024869
    228 H22        67.1543   60.8675   49.4587 U2         2 LUT      0.127376
    229 H21        67.5743   60.8744   51.1792 U2         2 LUT      0.127376
    230 H15        76.4994   64.2345   40.2430 T3         2 LUT      0.093200
    231 H14        75.6342   65.4520   42.9334 T2         2 LUT      0.068865
    232 H12        73.5935   64.9271   43.7072 T1         2 LUT      0.095507
    233 H11        71.6823   62.9217   42.4068 U9         2 LUT      0.068930
    234 H10        71.8126   64.4688   45.0317 U8         2 LUT      0.083911
    235 H1         89.2068   66.6002   31.2012 Q1         2 LUT      0.297311
@<TRIPOS>BOND
    1     6     1 1
    2     7     2 1
    3     8     3 1
    4     9     4 1
    5    11     4 1
    6    12     6 1
    7    13     9 1
    8    16     9 1
    9    25     5 1
   10    25    16 1
   11    26    10 1
   12    26    17 1
   13    27    18 1
   14    28    14 1
   15    28    19 1
   16    29    12 1
   17    30    13 1
   18    31    24 1
   19    32     1 1
   20    32    25 1
   21    33    21 1
   22    33    26 1
   23    34    22 1
   24    34    27 1
   25    35    23 1
   26    35    28 1
   27    36    12 1
   28    36    24 1
   29    37    13 1
   30    37    15 1
   31    38    31 1
   32    39    20 1
   33    39    32 1
   34    40     2 1
   35    40    33 1
   36    41     3 1
   37    41    34 1
   38    42     4 1
   39    42    35 1
   40    43    38 1
   41    44     5 1
   42    44    17 1
   43    44    39 1
   44    45    10 1
   45    45    18 1
   46    45    40 1
   47    46    19 1
   48    46    41 1
   49    47    14 1
   50    47    16 1
   51    47    42 1
   52    48    38 1
   53    49    48 1
   54    50    49 1
   55    51    50 1
   56    52    51 1
   57    53    51 1
   58    54    53 1
   59    55    54 1
   60    56    55 1
   61    57    56 1
   62    58    56 1
   63    59    58 1
   64    60    59 1
   65    61    60 1
   66    62    61 1
   67    63    61 1
   68    64    27 1
   69    64    46 1
   70    65     5 1
   71    65    10 1
   72    65    64 1
   73    65    14 1
   74    66    23 1
   75    67    23 1
   76    68    23 1
   77    69    22 1
   78    70    22 1
   79    71    22 1
   80    72    21 1
   81    73    21 1
   82    74    21 1
   83    75    20 1
   84    76    20 1
   85    77    20 1
   86    78    15 1
   87    79    15 1
   88    80    15 1
   89    81     8 1
   90    82     8 1
   91    83     8 1
   92    84     7 1
   93    85     7 1
   94    86     6 1
   95    87     6 1
   96    88     3 1
   97    89     3 1
   98    90     1 1
   99    91     1 1
  100    92    63 1
  101    93    63 1
  102    94    63 1
  103    95    62 1
  104    96    62 1
  105    97    62 1
  106    98    60 1
  107    99    60 1
  108   100    59 1
  109   101    59 1
  110   102    58 1
  111   103    58 1
  112   104    57 1
  113   105    57 1
  114   106    57 1
  115   107    55 1
  116   108    55 1
  117   109    54 1
  118   110    54 1
  119   111    53 1
  120   112    53 1
  121   113    19 1
  122   114    18 1
  123   115    17 1
  124   116     9 1
  125   117     2 1
  126   118    52 1
  127   119    52 1
  128   120    52 1
  129   121    51 1
  130   122    50 1
  131   123    50 1
  132   124    49 1
  133   125    49 1
  134   126    48 1
  135   127    48 1
  136   128    43 1
  137   129    43 1
  138   130    43 1
  139   131    39 1
  140   132    32 1
  141   133    31 1
  142   134    61 1
  143   135    56 1
  144   136    24 1
  145   137    24 1
  146   139   138 1
  147   140   139 1
  148   141   140 1
  149   142   140 1
  150   143   142 1
  151   144   138 1
  152   144   143 1
  153   145   144 1
  154   146   145 1
  155   147   146 1
  156   148   147 1
  157   149   148 1
  158   150   149 1
  159   151   150 1
  160   152   151 1
  161   153   152 1
  162   154   138 1
  163   155   138 1
  164   156   143 1
  165   157   147 1
  166   158   151 1
  167   160   159 1
  168   161   160 1
  169   162   161 1
  170   163   161 1
  171   164   163 1
  172   165   159 1
  173   165   164 1
  174   166   165 1
  175   167   166 1
  176   168   167 1
  177   169   168 1
  178   170   169 1
  179   171   170 1
  180   172   171 1
  181   173   172 1
  182   174   153 1
  183   174   173 1
  184   175   159 1
  185   176   159 1
  186   177   164 1
  187   178   168 1
  188   179   172 1
  189   180   179 1
  190   181   179 1
  191   182   179 1
  192   183   178 1
  193   184   178 1
  194   185   178 1
  195   186   177 1
  196   187   177 1
  197   188   177 1
  198   189   176 1
  199   190   176 1
  200   191   176 1
  201   192   175 1
  202   193   175 1
  203   194   175 1
  204   195   160 1
  205   196   160 1
  206   197   158 1
  207   198   158 1
  208   199   158 1
  209   200   157 1
  210   201   157 1
  211   202   157 1
  212   203   156 1
  213   204   156 1
  214   205   156 1
  215   206   155 1
  216   207   155 1
  217   208   155 1
  218   209   154 1
  219   210   154 1
  220   211   154 1
  221   212   141 1
  222   213   146 1
  223   214   145 1
  224   215   142 1
  225   216   142 1
  226   217   174 1
  227   218   173 1
  228   219   171 1
  229   220   170 1
  230   221   169 1
  231   222   140 1
  232   223   167 1
  233   224   166 1
  234   225   165 1
  235   226   163 1
  236   227   161 1
  237   228   139 1
  238   229   139 1
  239   230   153 1
  240   231   152 1
  241   232   150 1
  242   233   149 1
  243   234   148 1
  244   235   162 1
  245   65    153 1
  246   65    174 1
@<TRIPOS>SUBSTRUCTURE
      1 CLA               1 ****               0 ****  **** 
      2 LUT             138 ****               0 ****  **** 
