@<TRIPOS>MOLECULE
Cpptraj generated mol2 file.
  235   246     2     0     0
SMALL
USER_CHARGES


@<TRIPOS>ATOM
      1 CAA        79.0189   58.7548   33.6173 a2         1 CLA     -0.055900
      2 CAB        79.2486   62.4190   42.6294 c8         1 CLA     -0.148500
      3 CAC        72.3479   58.2965   42.3636 a2         1 CLA     -0.012600
      4 CAD        74.8847   55.9372   34.9854 ck         1 CLA      0.398800
      5 NA         78.0000   59.1023   37.0405 ns         1 CLA     -0.225500
      6 CBA        80.2633   58.6367   32.7139 a2         1 CLA     -0.135000
      7 CBB        79.0979   61.8163   43.8030 c0         1 CLA     -0.395200
      8 CBC        72.4010   56.8477   42.8119 a3         1 CLA     -0.037700
      9 CBD        76.2056   56.5995   34.4717 a1         1 CLA     -0.053900
     10 NB         78.0079   60.4773   39.6762 nm         1 CLA     -0.295700
     11 OBD        74.2442   55.0662   34.3645 o2         1 CLA     -0.494600
     12 CGA        80.6618   57.2219   32.3575 c4         1 CLA      0.827000
     13 CGD        77.0141   55.3580   34.1884 c4         1 CLA      0.655300
     14 ND         75.1759   58.1144   37.6759 nm         1 CLA     -0.291600
     15 CED        77.7182   53.3768   35.3079 a3         1 CLA      0.005400
     16 CHA        76.6768   57.5408   35.6987 cs         1 CLA     -0.123800
     17 CHB        79.8603   60.3827   38.0839 aa         1 CLA     -0.291900
     18 CHC        76.8249   60.6134   41.8229 aa         1 CLA     -0.090400
     19 CHD        73.4685   57.9565   39.4502 aa         1 CLA     -0.052000
     20 CMA        81.3684   57.9711   36.5923 a3         1 CLA     -0.230700
     21 CMB        81.1478   62.4678   40.0508 a3         1 CLA     -0.180800
     22 CMC        74.6953   60.0873   43.9638 a3         1 CLA     -0.134000
     23 CMD        72.1057   56.0271   37.1563 a3         1 CLA     -0.141100
     24 C1         81.1946   55.0986   33.3588 a2         1 CLA      0.023000
     25 C1A        77.8504   58.3210   35.9392 ac         1 CLA     -0.015100
     26 C1B        79.2556   60.8027   39.2723 cr         1 CLA      0.054700
     27 C1C        75.6499   59.9221   41.5532 cn         1 CLA     -0.005600
     28 C1D        73.9401   57.6259   38.0704 ap         1 CLA     -0.047300
     29 O1A        80.2939   56.5903   31.3703 o2         1 CLA     -0.610800
     30 O1D        77.7159   55.1659   33.2102 o2         1 CLA     -0.558200
     31 C2         81.6553   54.5955   34.6349 c8         1 CLA     -0.325100
     32 C2A        79.1212   58.2515   35.0985 a1         1 CLA      0.098600
     33 C2B        79.8634   61.6991   40.2326 cb         1 CLA      0.088500
     34 C2C        74.6178   59.6605   42.5311 cb         1 CLA      0.053700
     35 C2D        73.4102   56.7395   37.0249 cb         1 CLA      0.058900
     36 O2A        81.3116   56.5914   33.3768 o1         1 CLA     -0.437200
     37 O2D        77.0067   54.5901   35.2680 o1         1 CLA     -0.357600
     38 C3         82.2682   53.3440   34.7684 c5         1 CLA      0.031200
     39 C3A        80.2420   58.9297   35.9812 a1         1 CLA      0.166800
     40 C3B        79.0458   61.7363   41.3342 cb         1 CLA      0.035000
     41 C3C        73.6307   58.8939   41.8241 cb         1 CLA     -0.089900
     42 C3D        74.4894   56.6185   36.1445 cb         1 CLA     -0.035900
     43 C4         81.4565   52.0626   35.1157 a3         1 CLA     -0.053300
     44 C4A        79.3372   59.5559   37.1070 ac         1 CLA      0.001800
     45 C4B        77.9230   60.8969   40.9929 cn         1 CLA     -0.020900
     46 C4C        74.1351   58.7353   40.4435 cr         1 CLA     -0.044400
     47 C4D        75.4875   57.5250   36.4613 c6         1 CLA     -0.046000
     48 C5         83.7677   53.2192   34.6462 a2         1 CLA     -0.070400
     49 C6         84.6301   54.3847   35.2199 a2         1 CLA      0.043900
     50 C7         84.5728   54.5603   36.7896 a2         1 CLA     -0.150000
     51 C8         85.1410   55.8859   37.3484 a1         1 CLA      0.064200
     52 C9         86.6128   55.9395   36.8674 a3         1 CLA     -0.259300
     53 C10        85.0644   55.9828   38.8334 a2         1 CLA     -0.071900
     54 C11        83.6768   56.3676   39.2868 a2         1 CLA      0.014500
     55 C12        83.6207   57.0330   40.7211 a2         1 CLA     -0.112100
     56 C13        82.1388   57.3320   41.2644 a1         1 CLA      0.089200
     57 C14        81.2704   58.0101   40.1844 a3         1 CLA     -0.239100
     58 C15        82.1258   58.0178   42.6938 a2         1 CLA     -0.102200
     59 C16        82.7842   59.4334   42.8570 a2         1 CLA      0.023900
     60 C17        82.6023   60.0508   44.2388 a2         1 CLA     -0.105700
     61 C18        83.2368   61.5105   44.4410 a1         1 CLA      0.206800
     62 C19        82.6676   62.6797   43.6309 a3         1 CLA     -0.280100
     63 C20        83.3113   61.9078   45.9709 a3         1 CLA     -0.280100
     64 NC         75.3484   59.3840   40.2982 nx         1 CLA     -0.309200
     65 MG         76.5372   59.5091   38.5791 mg         1 CLA      0.895000
     66 HMD3       71.8442   55.5335   38.1070 dc         1 CLA      0.064300
     67 HMD2       71.3303   56.6878   36.7649 dc         1 CLA      0.064300
     68 HMD1       72.1706   55.2419   36.4028 dc         1 CLA      0.064300
     69 HMC3       75.6739   59.8801   44.3051 dc         1 CLA      0.052100
     70 HMC2       74.3979   61.1312   44.1710 dc         1 CLA      0.052100
     71 HMC1       74.0043   59.5542   44.5651 dc         1 CLA      0.052100
     72 HMB3       81.1987   62.8255   39.0401 dc         1 CLA      0.063600
     73 HMB2       81.2276   63.2999   40.7456 dc         1 CLA      0.063600
     74 HMB1       81.9967   61.8095   40.2332 dc         1 CLA      0.063600
     75 HMA3       80.8132   57.2171   37.1023 dc         1 CLA      0.058300
     76 HMA2       82.0832   57.5848   35.8931 dc         1 CLA      0.058300
     77 HMA1       81.8901   58.5538   37.2989 dc         1 CLA      0.058300
     78 HED3       77.4757   52.8069   36.1935 dc         1 CLA      0.079300
     79 HED2       77.4542   52.8755   34.3990 dc         1 CLA      0.079300
     80 HED1       78.7452   53.7766   35.3680 dc         1 CLA      0.079300
     81 HBC3       72.0023   56.6716   43.8344 dc         1 CLA      0.016300
     82 HBC2       71.9699   56.1612   42.0513 dc         1 CLA      0.016300
     83 HBC1       73.4506   56.5898   42.8853 dc         1 CLA      0.016300
     84 HBB2       79.2910   62.3114   44.7808 da         1 CLA      0.183000
     85 HBB1       78.8798   60.7090   43.8251 da         1 CLA      0.183000
     86 HBA2       80.0746   59.1365   31.7142 dc         1 CLA      0.029400
     87 HBA1       81.0998   59.1743   33.1568 dc         1 CLA      0.029400
     88 HAC2       72.0328   58.8878   43.1923 dc         1 CLA      0.029300
     89 HAC1       71.5452   58.4291   41.6312 dc         1 CLA      0.029300
     90 HAA2       78.2394   58.1492   33.1801 dc         1 CLA      0.028700
     91 HAA1       78.7076   59.7871   33.4565 dc         1 CLA      0.028700
     92 H203       83.7218   61.0633   46.5627 dc         1 CLA      0.065600
     93 H202       83.8879   62.8091   46.1760 dc         1 CLA      0.065600
     94 H201       82.2830   62.0983   46.2548 dc         1 CLA      0.065600
     95 H193       81.6619   62.9811   43.8598 dc         1 CLA      0.065600
     96 H192       83.3715   63.5513   43.8705 dc         1 CLA      0.065600
     97 H191       82.8798   62.6548   42.5616 dc         1 CLA      0.065600
     98 H172       81.5852   60.0307   44.6895 dc         1 CLA      0.027600
     99 H171       83.2833   59.4463   44.8041 dc         1 CLA      0.027600
    100 H162       83.8511   59.2962   42.5831 dc         1 CLA      0.002900
    101 H161       82.3566   60.1523   42.1269 dc         1 CLA      0.002900
    102 H152       81.1476   58.0027   43.1511 dc         1 CLA      0.029100
    103 H151       82.7624   57.4072   43.3008 dc         1 CLA      0.029100
    104 H143       81.8417   58.8101   39.7676 dc         1 CLA      0.063600
    105 H142       80.9450   57.2858   39.4050 dc         1 CLA      0.063600
    106 H141       80.3389   58.5036   40.5575 dc         1 CLA      0.063600
    107 H122       84.0940   56.3699   41.4626 dc         1 CLA      0.032500
    108 H121       84.1733   57.9774   40.5682 dc         1 CLA      0.032500
    109 H112       83.2842   57.1435   38.6271 dc         1 CLA      0.006600
    110 H111       82.9632   55.4735   39.3162 dc         1 CLA      0.006600
    111 H102       85.3748   54.9981   39.2525 dc         1 CLA      0.024100
    112 H101       85.6926   56.7924   39.0241 dc         1 CLA      0.024100
    113 HHD        72.5466   57.5643   39.6898 da         1 CLA      0.174300
    114 HHC        76.7779   60.9518   42.8209 da         1 CLA      0.136800
    115 HHB        80.8377   60.8692   37.8348 da         1 CLA      0.138300
    116 HBD        76.0007   57.0504   33.5107 dc         1 CLA      0.107700
    117 HAB        79.5231   63.4967   42.6263 da         1 CLA      0.155200
    118 H93        87.0847   56.8567   37.2331 dc         1 CLA      0.069500
    119 H92        87.1927   55.1052   37.1669 dc         1 CLA      0.069500
    120 H91        86.6447   56.0608   35.7423 dc         1 CLA      0.069500
    121 H8         84.4855   56.6565   36.8139 dc         1 CLA      0.029300
    122 H72        83.5464   54.4422   37.0865 dc         1 CLA      0.044400
    123 H71        85.2162   53.7076   37.1885 dc         1 CLA      0.044400
    124 H62        85.6585   54.2776   34.8175 dc         1 CLA      0.015600
    125 H61        84.1899   55.3435   34.8736 dc         1 CLA      0.015600
    126 H52        84.0900   52.3192   35.1619 dc         1 CLA      0.033200
    127 H51        83.9807   53.0626   33.5590 dc         1 CLA      0.033200
    128 H43        81.4899   52.0738   36.2429 dc         1 CLA      0.037000
    129 H42        80.4855   52.0451   34.7218 dc         1 CLA      0.037000
    130 H41        82.0114   51.1833   34.8387 dc         1 CLA      0.037000
    131 H3A        80.6847   59.8057   35.4957 dc         1 CLA      0.041100
    132 H2A        79.3719   57.2438   34.9296 dc         1 CLA      0.083100
    133 H2         81.7915   55.2883   35.5108 da         1 CLA      0.180900
    134 H18        84.2534   61.3838   44.0956 dc         1 CLA     -0.003900
    135 H13        81.5783   56.4227   41.4469 dc         1 CLA      0.019700
    136 H12        80.1744   54.7448   33.3605 dc         1 CLA      0.120400
    137 H11        81.8365   54.6637   32.5647 dc         1 CLA      0.120400
    138 C1         68.5282   61.7446   49.4652 Z1         2 LUT      0.509236
    139 C2         67.0841   61.5607   49.9653 Z2         2 LUT     -0.434695
    140 C3         66.4806   62.8471   50.5413 Z3         2 LUT      0.437453
    141 O3         66.9548   63.2318   51.8605 S1         2 LUT     -0.547129
    142 C4         66.8053   64.0343   49.5360 Z4         2 LUT     -0.468603
    143 C5         67.6237   63.6666   48.2949 Z5         2 LUT      0.279246
    144 C6         68.4255   62.5653   48.1494 Z6         2 LUT     -0.305473
    145 C7         68.9141   62.0060   46.8664 Z7         2 LUT      0.069402
    146 C8         69.9239   62.6721   46.0807 Z8         2 LUT     -0.191631
    147 C9         70.4778   62.2029   44.8109 Z9         2 LUT      0.196698
    148 C10        71.5278   62.9161   44.2625 Y1         2 LUT     -0.208611
    149 C11        72.3477   62.7272   43.1166 Y2         2 LUT      0.030784
    150 C12        73.3004   63.6264   42.7248 Y3         2 LUT     -0.220316
    151 C13        74.1965   63.4773   41.6082 Y4         2 LUT      0.215937
    152 C14        75.3499   64.2556   41.5815 Y5         2 LUT     -0.185793
    153 C15        76.4012   64.2696   40.6318 Y6         2 LUT     -0.057835
    154 C16        69.1965   60.3723   49.2475 Y7         2 LUT     -0.405615
    155 C17        69.4311   62.4777   50.4935 Y7         2 LUT     -0.405615
    156 C18        67.3124   64.5257   47.0450 Y9         2 LUT     -0.369639
    157 C19        69.8371   60.9904   44.1489 W1         2 LUT     -0.333362
    158 C20        73.8331   62.6488   40.3485 W2         2 LUT     -0.323439
    159 C21        87.6291   65.2569   34.5692 Z1         2 LUT      0.406104
    160 C22        88.5466   64.8526   33.4844 Z2         2 LUT     -0.404965
    161 C23        88.9949   66.0594   32.6422 Z3         2 LUT      0.391255
    162 O23        89.8182   65.6181   31.5490 S1         2 LUT     -0.528210
    163 C24        87.8237   66.8682   32.1658 W6         2 LUT     -0.258361
    164 C25        86.6691   67.0107   32.8265 Z5         2 LUT      0.133546
    165 C26        86.4351   66.1817   34.0992 W8         2 LUT     -0.147008
    166 C27        85.7551   66.8311   35.2164 Z7         2 LUT      0.023843
    167 C28        84.6401   66.2826   35.7063 Z8         2 LUT     -0.216987
    168 C29        83.9751   66.6408   37.0082 Z9         2 LUT      0.206524
    169 C30        82.9862   65.7990   37.4687 Y1         2 LUT     -0.215556
    170 C31        82.2294   65.9691   38.7234 Y2         2 LUT      0.025142
    171 C32        80.9540   65.4690   38.8878 Y3         2 LUT     -0.212209
    172 C33        80.0610   65.6844   40.0306 Y4         2 LUT      0.240937
    173 C34        78.7329   65.1061   39.9301 Y5         2 LUT     -0.218862
    174 C35        77.6007   64.9563   40.8243 Y6         2 LUT     -0.023547
    175 C36        88.4876   65.8607   35.6476 Y7         2 LUT     -0.393485
    176 C37        87.1111   63.8367   35.1032 Y7         2 LUT     -0.393485
    177 C38        85.4773   67.8614   32.4300 Y9         2 LUT     -0.387526
    178 C39        84.5417   67.7759   37.8773 W1         2 LUT     -0.322618
    179 C40        80.5105   66.3736   41.3256 W2         2 LUT     -0.358472
    180 H403       79.8629   66.0679   42.1793 R7         2 LUT      0.097720
    181 H402       81.5801   66.2363   41.6312 R7         2 LUT      0.097720
    182 H401       80.2421   67.4106   41.2416 R7         2 LUT      0.097720
    183 H393       85.0007   68.4912   37.2672 R4         2 LUT      0.082505
    184 H392       83.5802   68.2516   38.3072 R4         2 LUT      0.082505
    185 H391       85.1122   67.4892   38.7792 R4         2 LUT      0.082505
    186 H383       84.6440   67.1479   32.2939 R1         2 LUT      0.104030
    187 H382       85.0802   68.5207   33.1728 R1         2 LUT      0.104030
    188 H381       85.6716   68.5114   31.5386 R1         2 LUT      0.104030
    189 H373       86.3665   63.9911   35.8206 T4         2 LUT      0.089537
    190 H372       86.6295   63.2798   34.3584 T4         2 LUT      0.089537
    191 H371       87.8480   63.1962   35.6080 T4         2 LUT      0.089537
    192 H363       87.8277   66.1061   36.5125 T4         2 LUT      0.089537
    193 H362       89.2321   65.1625   36.1041 T4         2 LUT      0.089537
    194 H361       89.0337   66.7765   35.3428 T4         2 LUT      0.089537
    195 H222       89.4830   64.4713   33.8978 U2         2 LUT      0.127376
    196 H221       88.1830   64.0078   32.7609 U2         2 LUT      0.127376
    197 H203       73.0907   63.2399   39.8008 R7         2 LUT      0.087068
    198 H202       74.6596   62.4923   39.6504 R7         2 LUT      0.087068
    199 H201       73.4764   61.6590   40.5320 R7         2 LUT      0.087068
    200 H193       69.9253   60.1963   44.9081 R4         2 LUT      0.089716
    201 H192       68.7991   61.0720   43.8837 R4         2 LUT      0.089716
    202 H191       70.3236   60.6450   43.2521 R4         2 LUT      0.089716
    203 H183       66.2634   64.9133   47.0886 R1         2 LUT      0.094572
    204 H182       67.9627   65.3249   46.8831 R1         2 LUT      0.094572
    205 H181       67.2730   63.9195   46.1599 R1         2 LUT      0.094572
    206 H173       70.4589   62.4071   50.1406 T4         2 LUT      0.093752
    207 H172       69.2021   63.5425   50.6657 T4         2 LUT      0.093752
    208 H171       69.3607   61.9959   51.4147 T4         2 LUT      0.093752
    209 H163       70.1675   60.5217   48.9564 T4         2 LUT      0.093752
    210 H162       69.1774   59.7974   50.1808 T4         2 LUT      0.093752
    211 H161       68.6756   59.8041   48.4538 T4         2 LUT      0.093752
    212 HO3        66.4712   62.7540   52.5097 Q1         2 LUT      0.300121
    213 H8         70.4148   63.5989   46.4205 U7         2 LUT      0.080784
    214 H7         68.4997   61.0951   46.4115 U6         2 LUT      0.042190
    215 H42        65.8362   64.3584   49.1611 U5         2 LUT      0.145166
    216 H41        67.3987   64.8705   50.1207 U5         2 LUT      0.145166
    217 H35        77.8534   65.3558   41.7789 T3         2 LUT      0.077919
    218 H34        78.5450   64.5967   38.9514 T2         2 LUT      0.073626
    219 H32        80.6004   64.7664   38.1085 T1         2 LUT      0.092510
    220 H31        82.5606   66.6767   39.4898 U9         2 LUT      0.070048
    221 H30        82.6436   65.0562   36.7625 U8         2 LUT      0.085442
    222 H3         65.3607   62.7074   50.5833 U3         2 LUT     -0.031596
    223 H28        84.0123   65.5511   35.1310 U7         2 LUT      0.084728
    224 H27        86.3916   67.6164   35.6403 U6         2 LUT      0.087291
    225 H26        85.6519   65.4989   33.6889 Q6         2 LUT      0.075325
    226 H24        87.9336   67.3520   31.1332 Q5         2 LUT      0.094482
    227 H23        89.5749   66.6423   33.3295 U3         2 LUT     -0.024869
    228 H22        66.3767   61.2496   49.2727 U2         2 LUT      0.127376
    229 H21        67.1257   60.7039   50.6576 U2         2 LUT      0.127376
    230 H15        76.3364   63.9014   39.6706 T3         2 LUT      0.093200
    231 H14        75.7233   65.0758   42.2430 T2         2 LUT      0.068865
    232 H12        73.5399   64.5051   43.3294 T1         2 LUT      0.095507
    233 H11        72.1845   61.7665   42.5857 U9         2 LUT      0.068930
    234 H10        71.8193   63.8144   44.7951 U8         2 LUT      0.083911
    235 H1         89.3515   65.1823   30.8647 Q1         2 LUT      0.297311
@<TRIPOS>BOND
    1     6     1 1
    2     7     2 1
    3     8     3 1
    4     9     4 1
    5    11     4 1
    6    12     6 1
    7    13     9 1
    8    16     9 1
    9    25     5 1
   10    25    16 1
   11    26    10 1
   12    26    17 1
   13    27    18 1
   14    28    14 1
   15    28    19 1
   16    29    12 1
   17    30    13 1
   18    31    24 1
   19    32     1 1
   20    32    25 1
   21    33    21 1
   22    33    26 1
   23    34    22 1
   24    34    27 1
   25    35    23 1
   26    35    28 1
   27    36    12 1
   28    36    24 1
   29    37    13 1
   30    37    15 1
   31    38    31 1
   32    39    20 1
   33    39    32 1
   34    40     2 1
   35    40    33 1
   36    41     3 1
   37    41    34 1
   38    42     4 1
   39    42    35 1
   40    43    38 1
   41    44     5 1
   42    44    17 1
   43    44    39 1
   44    45    10 1
   45    45    18 1
   46    45    40 1
   47    46    19 1
   48    46    41 1
   49    47    14 1
   50    47    16 1
   51    47    42 1
   52    48    38 1
   53    49    48 1
   54    50    49 1
   55    51    50 1
   56    52    51 1
   57    53    51 1
   58    54    53 1
   59    55    54 1
   60    56    55 1
   61    57    56 1
   62    58    56 1
   63    59    58 1
   64    60    59 1
   65    61    60 1
   66    62    61 1
   67    63    61 1
   68    64    27 1
   69    64    46 1
   70    65     5 1
   71    65    10 1
   72    65    64 1
   73    65    14 1
   74    66    23 1
   75    67    23 1
   76    68    23 1
   77    69    22 1
   78    70    22 1
   79    71    22 1
   80    72    21 1
   81    73    21 1
   82    74    21 1
   83    75    20 1
   84    76    20 1
   85    77    20 1
   86    78    15 1
   87    79    15 1
   88    80    15 1
   89    81     8 1
   90    82     8 1
   91    83     8 1
   92    84     7 1
   93    85     7 1
   94    86     6 1
   95    87     6 1
   96    88     3 1
   97    89     3 1
   98    90     1 1
   99    91     1 1
  100    92    63 1
  101    93    63 1
  102    94    63 1
  103    95    62 1
  104    96    62 1
  105    97    62 1
  106    98    60 1
  107    99    60 1
  108   100    59 1
  109   101    59 1
  110   102    58 1
  111   103    58 1
  112   104    57 1
  113   105    57 1
  114   106    57 1
  115   107    55 1
  116   108    55 1
  117   109    54 1
  118   110    54 1
  119   111    53 1
  120   112    53 1
  121   113    19 1
  122   114    18 1
  123   115    17 1
  124   116     9 1
  125   117     2 1
  126   118    52 1
  127   119    52 1
  128   120    52 1
  129   121    51 1
  130   122    50 1
  131   123    50 1
  132   124    49 1
  133   125    49 1
  134   126    48 1
  135   127    48 1
  136   128    43 1
  137   129    43 1
  138   130    43 1
  139   131    39 1
  140   132    32 1
  141   133    31 1
  142   134    61 1
  143   135    56 1
  144   136    24 1
  145   137    24 1
  146   139   138 1
  147   140   139 1
  148   141   140 1
  149   142   140 1
  150   143   142 1
  151   144   138 1
  152   144   143 1
  153   145   144 1
  154   146   145 1
  155   147   146 1
  156   148   147 1
  157   149   148 1
  158   150   149 1
  159   151   150 1
  160   152   151 1
  161   153   152 1
  162   154   138 1
  163   155   138 1
  164   156   143 1
  165   157   147 1
  166   158   151 1
  167   160   159 1
  168   161   160 1
  169   162   161 1
  170   163   161 1
  171   164   163 1
  172   165   159 1
  173   165   164 1
  174   166   165 1
  175   167   166 1
  176   168   167 1
  177   169   168 1
  178   170   169 1
  179   171   170 1
  180   172   171 1
  181   173   172 1
  182   174   153 1
  183   174   173 1
  184   175   159 1
  185   176   159 1
  186   177   164 1
  187   178   168 1
  188   179   172 1
  189   180   179 1
  190   181   179 1
  191   182   179 1
  192   183   178 1
  193   184   178 1
  194   185   178 1
  195   186   177 1
  196   187   177 1
  197   188   177 1
  198   189   176 1
  199   190   176 1
  200   191   176 1
  201   192   175 1
  202   193   175 1
  203   194   175 1
  204   195   160 1
  205   196   160 1
  206   197   158 1
  207   198   158 1
  208   199   158 1
  209   200   157 1
  210   201   157 1
  211   202   157 1
  212   203   156 1
  213   204   156 1
  214   205   156 1
  215   206   155 1
  216   207   155 1
  217   208   155 1
  218   209   154 1
  219   210   154 1
  220   211   154 1
  221   212   141 1
  222   213   146 1
  223   214   145 1
  224   215   142 1
  225   216   142 1
  226   217   174 1
  227   218   173 1
  228   219   171 1
  229   220   170 1
  230   221   169 1
  231   222   140 1
  232   223   167 1
  233   224   166 1
  234   225   165 1
  235   226   163 1
  236   227   161 1
  237   228   139 1
  238   229   139 1
  239   230   153 1
  240   231   152 1
  241   232   150 1
  242   233   149 1
  243   234   148 1
  244   235   162 1
  245   65    153 1
  246   65    174 1
@<TRIPOS>SUBSTRUCTURE
      1 CLA               1 ****               0 ****  **** 
      2 LUT             138 ****               0 ****  **** 
