@<TRIPOS>MOLECULE
Cpptraj generated mol2 file.
  235   246     2     0     0
SMALL
USER_CHARGES


@<TRIPOS>ATOM
      1 CAA        78.2957   56.7765   34.7496 a2         1 CLA     -0.055900
      2 CAB        78.4651   61.4906   43.3177 c8         1 CLA     -0.148500
      3 CAC        71.3283   57.6412   43.2677 a2         1 CLA     -0.012600
      4 CAD        73.6156   54.9934   35.9099 ck         1 CLA      0.398800
      5 NA         77.1105   57.5104   38.0397 ns         1 CLA     -0.225500
      6 CBA        79.5390   56.3708   33.9814 a2         1 CLA     -0.135000
      7 CBB        79.6604   61.7895   43.9072 c0         1 CLA     -0.395200
      8 CBC        71.1111   56.0607   43.1905 a3         1 CLA     -0.037700
      9 CBD        75.1721   55.3041   35.5916 a1         1 CLA     -0.053900
     10 NB         77.1929   59.3561   40.5050 nm         1 CLA     -0.295700
     11 OBD        72.9298   54.3027   35.2230 o2         1 CLA     -0.494600
     12 CGA        79.8016   54.8320   33.7156 c4         1 CLA      0.827000
     13 CGD        76.0421   54.0111   35.4897 c4         1 CLA      0.655300
     14 ND         74.2699   56.8937   38.7077 nm         1 CLA     -0.291600
     15 CED        76.2266   51.8076   36.3128 a3         1 CLA      0.005400
     16 CHA        75.6411   56.1616   36.7682 cs         1 CLA     -0.123800
     17 CHB        79.0381   58.7668   38.9786 aa         1 CLA     -0.291900
     18 CHC        75.9271   59.7751   42.5574 aa         1 CLA     -0.090400
     19 CHD        72.4473   57.1084   40.2635 aa         1 CLA     -0.052000
     20 CMA        80.4488   56.3978   37.6973 a3         1 CLA     -0.230700
     21 CMB        80.4815   61.0014   40.7147 a3         1 CLA     -0.180800
     22 CMC        73.4726   59.8910   44.4342 a3         1 CLA     -0.134000
     23 CMD        70.9232   55.3208   38.1626 a3         1 CLA     -0.141100
     24 C1         80.1391   52.6669   34.8099 a2         1 CLA      0.023000
     25 C1A        76.8819   56.6748   36.9825 ac         1 CLA     -0.015100
     26 C1B        78.5173   59.4932   40.0706 cr         1 CLA      0.054700
     27 C1C        74.6991   59.0841   42.3258 cn         1 CLA     -0.005600
     28 C1D        72.9840   56.6263   39.0760 ap         1 CLA     -0.047300
     29 O1A        79.7618   54.3333   32.6322 o2         1 CLA     -0.610800
     30 O1D        76.9986   53.9662   34.7278 o2         1 CLA     -0.558200
     31 C2         80.3629   52.2670   36.2386 c8         1 CLA     -0.325100
     32 C2A        78.2062   56.3420   36.2374 a1         1 CLA      0.098600
     33 C2B        79.2054   60.3761   41.0098 cb         1 CLA      0.088500
     34 C2C        73.5220   59.1613   43.1893 cb         1 CLA      0.053700
     35 C2D        72.3402   55.8288   38.1111 cb         1 CLA      0.058900
     36 O2A        79.9351   54.1477   34.8466 o1         1 CLA     -0.437200
     37 O2D        75.5734   53.0858   36.3641 o1         1 CLA     -0.357600
     38 C3         81.1614   51.3245   36.7284 c5         1 CLA      0.031200
     39 C3A        79.2482   57.1905   37.0654 a1         1 CLA      0.166800
     40 C3B        78.2959   60.7053   42.0685 cb         1 CLA      0.035000
     41 C3C        72.6124   58.1975   42.6770 cb         1 CLA     -0.089900
     42 C3D        73.3421   55.6444   37.1128 cb         1 CLA     -0.035900
     43 C4         80.6415   49.9454   36.9670 a3         1 CLA     -0.053300
     44 C4A        78.4419   57.9021   38.0852 ac         1 CLA      0.001800
     45 C4B        77.0504   59.9536   41.7414 cn         1 CLA     -0.020900
     46 C4C        73.0770   57.9363   41.2895 cr         1 CLA     -0.044400
     47 C4D        74.5090   56.2399   37.6175 c6         1 CLA     -0.046000
     48 C5         82.6680   51.4944   36.9043 a2         1 CLA     -0.070400
     49 C6         83.1421   52.9041   37.5455 a2         1 CLA      0.043900
     50 C7         84.6260   52.9092   38.0219 a2         1 CLA     -0.150000
     51 C8         85.1113   54.2863   38.5213 a1         1 CLA      0.064200
     52 C9         86.6621   54.3893   38.3494 a3         1 CLA     -0.259300
     53 C10        84.9108   54.4497   40.0469 a2         1 CLA     -0.071900
     54 C11        83.4368   54.7609   40.4485 a2         1 CLA      0.014500
     55 C12        83.1952   55.3617   41.8204 a2         1 CLA     -0.112100
     56 C13        81.7630   55.7247   42.2644 a1         1 CLA      0.089200
     57 C14        81.3006   56.9070   41.3680 a3         1 CLA     -0.239100
     58 C15        81.6814   56.1287   43.7835 a2         1 CLA     -0.102200
     59 C16        82.3024   57.5174   44.1669 a2         1 CLA      0.023900
     60 C17        81.9038   57.8827   45.6109 a2         1 CLA     -0.105700
     61 C18        82.4164   59.2262   46.1456 a1         1 CLA      0.206800
     62 C19        81.7051   59.5650   47.4348 a3         1 CLA     -0.280100
     63 C20        83.9414   59.4103   46.3607 a3         1 CLA     -0.280100
     64 NC         74.3400   58.5223   41.1095 nx         1 CLA     -0.309200
     65 MG         75.6585   58.2056   39.4518 mg         1 CLA      0.895000
     66 HMD3       70.2010   56.1245   37.9909 dc         1 CLA      0.064300
     67 HMD2       70.8940   54.5533   37.4114 dc         1 CLA      0.064300
     68 HMD1       70.7541   54.8913   39.1737 dc         1 CLA      0.064300
     69 HMC3       72.4418   59.9357   44.7746 dc         1 CLA      0.052100
     70 HMC2       74.0761   59.2907   45.1792 dc         1 CLA      0.052100
     71 HMC1       73.8981   60.8286   44.2545 dc         1 CLA      0.052100
     72 HMB3       80.6847   60.8349   39.6393 dc         1 CLA      0.063600
     73 HMB2       80.5329   62.0547   40.9565 dc         1 CLA      0.063600
     74 HMB1       81.1316   60.3975   41.2978 dc         1 CLA      0.063600
     75 HMA3       81.2671   56.8706   38.2860 dc         1 CLA      0.058300
     76 HMA2       80.0442   55.7370   38.4321 dc         1 CLA      0.058300
     77 HMA1       80.8592   55.7416   36.8482 dc         1 CLA      0.058300
     78 HED3       76.2651   51.4618   35.2686 dc         1 CLA      0.079300
     79 HED2       77.2274   51.9518   36.6798 dc         1 CLA      0.079300
     80 HED1       75.7887   51.0582   36.7636 dc         1 CLA      0.079300
     81 HBC3       71.7327   55.7283   44.0585 dc         1 CLA      0.016300
     82 HBC2       70.0266   55.8201   43.3152 dc         1 CLA      0.016300
     83 HBC1       71.4623   55.6447   42.2624 dc         1 CLA      0.016300
     84 HBB2       79.6548   62.3186   44.8546 da         1 CLA      0.183000
     85 HBB1       80.5755   61.5289   43.5023 da         1 CLA      0.183000
     86 HBA2       79.4383   56.9092   33.0354 dc         1 CLA      0.029400
     87 HBA1       80.4463   56.7577   34.3977 dc         1 CLA      0.029400
     88 HAC2       71.1237   58.0303   44.2254 dc         1 CLA      0.029300
     89 HAC1       70.4884   58.0961   42.7336 dc         1 CLA      0.029300
     90 HAA2       77.4563   56.4312   34.1200 dc         1 CLA      0.028700
     91 HAA1       78.3415   57.8595   34.7340 dc         1 CLA      0.028700
     92 H203       83.9763   60.3392   46.8308 dc         1 CLA      0.065600
     93 H202       84.3076   58.6936   47.0873 dc         1 CLA      0.065600
     94 H201       84.5376   59.4389   45.3987 dc         1 CLA      0.065600
     95 H193       82.2463   60.4240   47.8750 dc         1 CLA      0.065600
     96 H192       80.6865   59.9302   47.3540 dc         1 CLA      0.065600
     97 H191       81.7256   58.6215   48.1095 dc         1 CLA      0.065600
     98 H172       80.8356   58.0748   45.5638 dc         1 CLA      0.027600
     99 H171       82.1971   57.0947   46.2964 dc         1 CLA      0.027600
    100 H162       83.4027   57.5858   43.9912 dc         1 CLA      0.002900
    101 H161       82.0249   58.3414   43.5278 dc         1 CLA      0.002900
    102 H152       80.6255   56.1878   43.9487 dc         1 CLA      0.029100
    103 H151       82.0371   55.3987   44.4858 dc         1 CLA      0.029100
    104 H143       81.9356   57.8213   41.3202 dc         1 CLA      0.063600
    105 H142       81.1439   56.5468   40.3012 dc         1 CLA      0.063600
    106 H141       80.3027   57.1062   41.7120 dc         1 CLA      0.063600
    107 H122       83.6693   54.6909   42.5211 dc         1 CLA      0.032500
    108 H121       83.8261   56.2717   41.8519 dc         1 CLA      0.032500
    109 H112       83.0481   55.4659   39.7379 dc         1 CLA      0.006600
    110 H111       82.8502   53.8470   40.5218 dc         1 CLA      0.006600
    111 H102       85.2117   53.5230   40.6025 dc         1 CLA      0.024100
    112 H101       85.5428   55.2697   40.4817 dc         1 CLA      0.024100
    113 HHD        71.3796   56.9127   40.4861 da         1 CLA      0.174300
    114 HHC        76.0857   60.0987   43.6083 da         1 CLA      0.136800
    115 HHB        80.1394   58.8894   38.9205 da         1 CLA      0.138300
    116 HBD        75.0839   55.7759   34.6680 dc         1 CLA      0.107700
    117 HAB        77.6028   61.7482   43.9495 da         1 CLA      0.155200
    118 H93        86.8985   54.1580   37.2851 dc         1 CLA      0.069500
    119 H92        86.9447   55.4352   38.4475 dc         1 CLA      0.069500
    120 H91        87.2204   53.7480   39.0563 dc         1 CLA      0.069500
    121 H8         84.6211   55.0470   37.9462 dc         1 CLA      0.029300
    122 H72        84.9059   52.2089   38.8182 dc         1 CLA      0.044400
    123 H71        85.3273   52.6235   37.2047 dc         1 CLA      0.044400
    124 H62        83.0243   53.6553   36.7185 dc         1 CLA      0.015600
    125 H61        82.4739   52.9392   38.4257 dc         1 CLA      0.015600
    126 H52        82.9475   50.6252   37.5583 dc         1 CLA      0.033200
    127 H51        83.1763   51.3737   35.8915 dc         1 CLA      0.033200
    128 H43        81.0761   49.2282   36.3500 dc         1 CLA      0.037000
    129 H42        80.8748   49.7187   38.0296 dc         1 CLA      0.037000
    130 H41        79.6054   49.9819   36.9244 dc         1 CLA      0.037000
    131 H3A        79.6148   57.9288   36.4246 dc         1 CLA      0.041100
    132 H2A        78.4284   55.3127   36.3848 dc         1 CLA      0.083100
    133 H2         79.9599   52.9803   37.0324 da         1 CLA      0.180900
    134 H18        82.1688   59.9786   45.4803 dc         1 CLA     -0.003900
    135 H13        81.2667   54.7549   42.0964 dc         1 CLA      0.019700
    136 H12        79.2430   52.1741   34.5084 dc         1 CLA      0.120400
    137 H11        81.0779   52.4295   34.2919 dc         1 CLA      0.120400
    138 C1         67.9950   60.8683   49.5720 Z1         2 LUT      0.509236
    139 C2         66.7404   60.6121   50.4641 Z2         2 LUT     -0.434695
    140 C3         65.7203   61.6506   50.7586 Z3         2 LUT      0.437453
    141 O3         65.8295   62.0080   52.1407 S1         2 LUT     -0.547129
    142 C4         65.8669   62.8393   49.7719 Z4         2 LUT     -0.468603
    143 C5         66.4241   62.5886   48.3722 Z5         2 LUT      0.279246
    144 C6         67.5059   61.7177   48.2858 Z6         2 LUT     -0.305473
    145 C7         67.9291   61.2081   47.0603 Z7         2 LUT      0.069402
    146 C8         68.8532   61.8318   46.3484 Z8         2 LUT     -0.191631
    147 C9         69.3734   61.4012   44.9930 Z9         2 LUT      0.196698
    148 C10        70.4159   62.1902   44.5283 Y1         2 LUT     -0.208611
    149 C11        71.2740   62.0702   43.3250 Y2         2 LUT      0.030784
    150 C12        72.2793   63.0004   43.0587 Y3         2 LUT     -0.220316
    151 C13        73.3253   62.7595   42.0827 Y4         2 LUT      0.215937
    152 C14        74.4337   63.5303   42.1624 Y5         2 LUT     -0.185793
    153 C15        75.7108   63.2812   41.5780 Y6         2 LUT     -0.057835
    154 C16        68.8487   59.5909   49.2786 Y7         2 LUT     -0.405615
    155 C17        68.9687   61.7346   50.4158 Y7         2 LUT     -0.405615
    156 C18        65.8143   63.4976   47.3219 Y9         2 LUT     -0.369639
    157 C19        68.7155   60.2393   44.2488 W1         2 LUT     -0.333362
    158 C20        73.0135   62.0309   40.8148 W2         2 LUT     -0.323439
    159 C21        86.8965   63.8392   35.6852 Z1         2 LUT      0.406104
    160 C22        87.8038   63.4123   34.5317 Z2         2 LUT     -0.404965
    161 C23        88.3642   64.5233   33.6051 Z3         2 LUT      0.391255
    162 O23        89.2590   63.9907   32.6498 S1         2 LUT     -0.528210
    163 C24        87.2969   65.4931   33.2127 W6         2 LUT     -0.258361
    164 C25        86.0466   65.5309   33.7879 Z5         2 LUT      0.133546
    165 C26        85.6631   64.6462   34.9735 W8         2 LUT     -0.147008
    166 C27        84.8863   65.5214   35.9726 Z7         2 LUT      0.023843
    167 C28        83.8981   64.9882   36.6635 Z8         2 LUT     -0.216987
    168 C29        83.2201   65.5785   37.8808 Z9         2 LUT      0.206524
    169 C30        82.1083   64.9274   38.3218 Y1         2 LUT     -0.215556
    170 C31        81.1003   65.2558   39.2747 Y2         2 LUT      0.025142
    171 C32        80.0277   64.4347   39.5864 Y3         2 LUT     -0.212209
    172 C33        79.0914   64.7103   40.6576 Y4         2 LUT      0.240937
    173 C34        77.9914   63.8660   40.8122 Y5         2 LUT     -0.218862
    174 C35        76.8529   63.9892   41.6632 Y6         2 LUT     -0.023547
    175 C36        87.7036   64.6450   36.6115 Y7         2 LUT     -0.393485
    176 C37        86.4910   62.5225   36.3678 Y7         2 LUT     -0.393485
    177 C38        84.9775   66.4163   33.2004 Y9         2 LUT     -0.387526
    178 C39        83.6935   66.9115   38.5235 W1         2 LUT     -0.322618
    179 C40        79.2757   66.0017   41.4211 W2         2 LUT     -0.358472
    180 H403       80.2397   66.0663   41.9043 R7         2 LUT      0.097720
    181 H402       79.0331   66.7883   40.7073 R7         2 LUT      0.097720
    182 H401       78.5079   66.1321   42.2221 R7         2 LUT      0.097720
    183 H393       83.4111   67.8472   37.9823 R4         2 LUT      0.082505
    184 H392       83.3066   67.1098   39.5298 R4         2 LUT      0.082505
    185 H391       84.7331   66.9267   38.5440 R4         2 LUT      0.082505
    186 H383       85.3232   67.0449   32.3425 R1         2 LUT      0.104030
    187 H382       84.1566   65.7211   32.8337 R1         2 LUT      0.104030
    188 H381       84.3986   67.0616   33.9258 R1         2 LUT      0.104030
    189 H373       87.3073   61.9846   36.8838 T4         2 LUT      0.089537
    190 H372       85.7764   62.7048   37.1924 T4         2 LUT      0.089537
    191 H371       86.0922   61.7845   35.6752 T4         2 LUT      0.089537
    192 H363       87.1509   64.8281   37.5327 T4         2 LUT      0.089537
    193 H362       88.7012   64.2830   36.8806 T4         2 LUT      0.089537
    194 H361       87.8607   65.6533   36.2458 T4         2 LUT      0.089537
    195 H222       88.6316   62.7483   34.8222 U2         2 LUT      0.127376
    196 H221       87.2387   62.7672   33.8878 U2         2 LUT      0.127376
    197 H203       73.5902   61.1504   40.9096 R7         2 LUT      0.087068
    198 H202       71.9216   61.8384   40.6786 R7         2 LUT      0.087068
    199 H201       73.3163   62.5476   39.9566 R7         2 LUT      0.087068
    200 H193       69.3597   59.7710   43.4169 R4         2 LUT      0.089716
    201 H192       68.3061   59.5129   45.0024 R4         2 LUT      0.089716
    202 H191       67.7907   60.6026   43.7418 R4         2 LUT      0.089716
    203 H183       66.0089   63.0595   46.2967 R1         2 LUT      0.094572
    204 H182       64.6919   63.5015   47.4023 R1         2 LUT      0.094572
    205 H181       66.2321   64.5208   47.4734 R1         2 LUT      0.094572
    206 H173       69.7917   62.0662   49.8776 T4         2 LUT      0.093752
    207 H172       68.4462   62.5684   50.8718 T4         2 LUT      0.093752
    208 H171       69.3835   61.2061   51.3146 T4         2 LUT      0.093752
    209 H163       69.4953   59.3074   50.0835 T4         2 LUT      0.093752
    210 H162       68.2376   58.8537   48.8895 T4         2 LUT      0.093752
    211 H161       69.4762   59.7373   48.4451 T4         2 LUT      0.093752
    212 HO3        65.0506   61.7886   52.7554 Q1         2 LUT      0.300121
    213 H8         69.3809   62.6521   46.8757 U7         2 LUT      0.080784
    214 H7         67.3549   60.3347   46.7232 U6         2 LUT      0.042190
    215 H42        65.0058   63.3796   49.6362 U5         2 LUT      0.145166
    216 H41        66.5927   63.6167   50.2462 U5         2 LUT      0.145166
    217 H35        76.7113   64.8954   42.2676 T3         2 LUT      0.077919
    218 H34        78.0015   63.0074   40.0581 T2         2 LUT      0.073626
    219 H32        79.8951   63.5887   39.0123 T1         2 LUT      0.092510
    220 H31        81.2886   66.1519   39.8834 U9         2 LUT      0.070048
    221 H30        81.9385   64.0577   37.6987 U8         2 LUT      0.085442
    222 H3         64.7733   61.1759   50.6057 U3         2 LUT     -0.031596
    223 H28        83.5190   64.0023   36.3098 U7         2 LUT      0.084728
    224 H27        85.4180   66.4891   36.1859 U6         2 LUT      0.087291
    225 H26        85.0760   63.8572   34.5934 Q6         2 LUT      0.075325
    226 H24        87.4633   66.1420   32.3569 Q5         2 LUT      0.094482
    227 H23        89.1277   65.0916   34.2206 U3         2 LUT     -0.024869
    228 H22        66.1429   59.8641   49.9002 U2         2 LUT      0.127376
    229 H21        67.0164   59.8830   51.2671 U2         2 LUT      0.127376
    230 H15        75.6907   62.5443   40.7375 T3         2 LUT      0.093200
    231 H14        74.4450   64.2482   42.9541 T2         2 LUT      0.068865
    232 H12        72.3090   63.7701   43.8373 T1         2 LUT      0.095507
    233 H11        71.0293   61.1716   42.7641 U9         2 LUT      0.068930
    234 H10        70.6043   62.9894   45.1916 U8         2 LUT      0.083911
    235 H1         88.8003   63.7894   31.7879 Q1         2 LUT      0.297311
@<TRIPOS>BOND
    1     6     1 1
    2     7     2 1
    3     8     3 1
    4     9     4 1
    5    11     4 1
    6    12     6 1
    7    13     9 1
    8    16     9 1
    9    25     5 1
   10    25    16 1
   11    26    10 1
   12    26    17 1
   13    27    18 1
   14    28    14 1
   15    28    19 1
   16    29    12 1
   17    30    13 1
   18    31    24 1
   19    32     1 1
   20    32    25 1
   21    33    21 1
   22    33    26 1
   23    34    22 1
   24    34    27 1
   25    35    23 1
   26    35    28 1
   27    36    12 1
   28    36    24 1
   29    37    13 1
   30    37    15 1
   31    38    31 1
   32    39    20 1
   33    39    32 1
   34    40     2 1
   35    40    33 1
   36    41     3 1
   37    41    34 1
   38    42     4 1
   39    42    35 1
   40    43    38 1
   41    44     5 1
   42    44    17 1
   43    44    39 1
   44    45    10 1
   45    45    18 1
   46    45    40 1
   47    46    19 1
   48    46    41 1
   49    47    14 1
   50    47    16 1
   51    47    42 1
   52    48    38 1
   53    49    48 1
   54    50    49 1
   55    51    50 1
   56    52    51 1
   57    53    51 1
   58    54    53 1
   59    55    54 1
   60    56    55 1
   61    57    56 1
   62    58    56 1
   63    59    58 1
   64    60    59 1
   65    61    60 1
   66    62    61 1
   67    63    61 1
   68    64    27 1
   69    64    46 1
   70    65     5 1
   71    65    10 1
   72    65    64 1
   73    65    14 1
   74    66    23 1
   75    67    23 1
   76    68    23 1
   77    69    22 1
   78    70    22 1
   79    71    22 1
   80    72    21 1
   81    73    21 1
   82    74    21 1
   83    75    20 1
   84    76    20 1
   85    77    20 1
   86    78    15 1
   87    79    15 1
   88    80    15 1
   89    81     8 1
   90    82     8 1
   91    83     8 1
   92    84     7 1
   93    85     7 1
   94    86     6 1
   95    87     6 1
   96    88     3 1
   97    89     3 1
   98    90     1 1
   99    91     1 1
  100    92    63 1
  101    93    63 1
  102    94    63 1
  103    95    62 1
  104    96    62 1
  105    97    62 1
  106    98    60 1
  107    99    60 1
  108   100    59 1
  109   101    59 1
  110   102    58 1
  111   103    58 1
  112   104    57 1
  113   105    57 1
  114   106    57 1
  115   107    55 1
  116   108    55 1
  117   109    54 1
  118   110    54 1
  119   111    53 1
  120   112    53 1
  121   113    19 1
  122   114    18 1
  123   115    17 1
  124   116     9 1
  125   117     2 1
  126   118    52 1
  127   119    52 1
  128   120    52 1
  129   121    51 1
  130   122    50 1
  131   123    50 1
  132   124    49 1
  133   125    49 1
  134   126    48 1
  135   127    48 1
  136   128    43 1
  137   129    43 1
  138   130    43 1
  139   131    39 1
  140   132    32 1
  141   133    31 1
  142   134    61 1
  143   135    56 1
  144   136    24 1
  145   137    24 1
  146   139   138 1
  147   140   139 1
  148   141   140 1
  149   142   140 1
  150   143   142 1
  151   144   138 1
  152   144   143 1
  153   145   144 1
  154   146   145 1
  155   147   146 1
  156   148   147 1
  157   149   148 1
  158   150   149 1
  159   151   150 1
  160   152   151 1
  161   153   152 1
  162   154   138 1
  163   155   138 1
  164   156   143 1
  165   157   147 1
  166   158   151 1
  167   160   159 1
  168   161   160 1
  169   162   161 1
  170   163   161 1
  171   164   163 1
  172   165   159 1
  173   165   164 1
  174   166   165 1
  175   167   166 1
  176   168   167 1
  177   169   168 1
  178   170   169 1
  179   171   170 1
  180   172   171 1
  181   173   172 1
  182   174   153 1
  183   174   173 1
  184   175   159 1
  185   176   159 1
  186   177   164 1
  187   178   168 1
  188   179   172 1
  189   180   179 1
  190   181   179 1
  191   182   179 1
  192   183   178 1
  193   184   178 1
  194   185   178 1
  195   186   177 1
  196   187   177 1
  197   188   177 1
  198   189   176 1
  199   190   176 1
  200   191   176 1
  201   192   175 1
  202   193   175 1
  203   194   175 1
  204   195   160 1
  205   196   160 1
  206   197   158 1
  207   198   158 1
  208   199   158 1
  209   200   157 1
  210   201   157 1
  211   202   157 1
  212   203   156 1
  213   204   156 1
  214   205   156 1
  215   206   155 1
  216   207   155 1
  217   208   155 1
  218   209   154 1
  219   210   154 1
  220   211   154 1
  221   212   141 1
  222   213   146 1
  223   214   145 1
  224   215   142 1
  225   216   142 1
  226   217   174 1
  227   218   173 1
  228   219   171 1
  229   220   170 1
  230   221   169 1
  231   222   140 1
  232   223   167 1
  233   224   166 1
  234   225   165 1
  235   226   163 1
  236   227   161 1
  237   228   139 1
  238   229   139 1
  239   230   153 1
  240   231   152 1
  241   232   150 1
  242   233   149 1
  243   234   148 1
  244   235   162 1
  245   65    153 1
  246   65    174 1
@<TRIPOS>SUBSTRUCTURE
      1 CLA               1 ****               0 ****  **** 
      2 LUT             138 ****               0 ****  **** 
