@<TRIPOS>MOLECULE
Cpptraj generated mol2 file.
  235   246     2     0     0
SMALL
USER_CHARGES


@<TRIPOS>ATOM
      1 CAA        78.7024   57.3573   34.7963 a2         1 CLA     -0.055900
      2 CAB        78.1035   61.6011   43.8344 c8         1 CLA     -0.148500
      3 CAC        71.3377   57.1377   43.0477 a2         1 CLA     -0.012600
      4 CAD        74.4538   54.9257   36.0411 ck         1 CLA      0.398800
      5 NA         77.4798   57.9980   38.2429 ns         1 CLA     -0.225500
      6 CBA        80.0592   57.1155   34.1148 a2         1 CLA     -0.135000
      7 CBB        77.8969   61.1533   45.1054 c0         1 CLA     -0.395200
      8 CBC        71.4307   55.6109   43.4791 a3         1 CLA     -0.037700
      9 CBD        75.8642   55.4529   35.8338 a1         1 CLA     -0.053900
     10 NB         77.2010   59.5941   40.8349 nm         1 CLA     -0.295700
     11 OBD        73.8317   54.1365   35.3601 o2         1 CLA     -0.494600
     12 CGA        80.4317   55.6438   33.9207 c4         1 CLA      0.827000
     13 CGD        76.8011   54.2315   35.7613 c4         1 CLA      0.655300
     14 ND         74.7828   57.0177   38.8562 nm         1 CLA     -0.291600
     15 CED        76.9003   51.9254   36.3880 a3         1 CLA      0.005400
     16 CHA        76.2476   56.4297   36.9023 cs         1 CLA     -0.123800
     17 CHB        79.1255   59.4951   39.3318 aa         1 CLA     -0.291900
     18 CHC        75.6481   59.7769   42.7503 aa         1 CLA     -0.090400
     19 CHD        72.7260   56.8360   40.1936 aa         1 CLA     -0.052000
     20 CMA        80.9738   57.3796   37.8198 a3         1 CLA     -0.230700
     21 CMB        80.4481   61.2082   41.5899 a3         1 CLA     -0.180800
     22 CMC        73.4361   58.9325   44.8152 a3         1 CLA     -0.134000
     23 CMD        71.7086   54.9737   37.9426 a3         1 CLA     -0.141100
     24 C1         81.2852   53.6491   34.9518 a2         1 CLA      0.023000
     25 C1A        77.4187   57.1687   37.1372 ac         1 CLA     -0.015100
     26 C1B        78.4833   59.9174   40.5529 cr         1 CLA      0.054700
     27 C1C        74.5533   59.0247   42.4229 cn         1 CLA     -0.005600
     28 C1D        73.4281   56.5664   39.0620 ap         1 CLA     -0.047300
     29 O1A        80.1059   55.0273   32.8982 o2         1 CLA     -0.610800
     30 O1D        77.7370   54.0484   34.9597 o2         1 CLA     -0.558200
     31 C2         81.7807   53.2717   36.2905 c8         1 CLA     -0.325100
     32 C2A        78.7210   57.0555   36.3609 a1         1 CLA      0.098600
     33 C2B        79.0715   60.6744   41.5961 cb         1 CLA      0.088500
     34 C2C        73.4836   58.6139   43.3408 cb         1 CLA      0.053700
     35 C2D        72.9643   55.7215   37.9971 cb         1 CLA      0.058900
     36 O2A        81.0978   55.0929   34.9963 o1         1 CLA     -0.437200
     37 O2D        76.4920   53.2563   36.6837 o1         1 CLA     -0.357600
     38 C3         82.7612   52.4151   36.5712 c5         1 CLA      0.031200
     39 C3A        79.6993   58.1097   37.1899 a1         1 CLA      0.166800
     40 C3B        78.0496   60.7976   42.5685 cb         1 CLA      0.035000
     41 C3C        72.6579   57.7799   42.5813 cb         1 CLA     -0.089900
     42 C3D        74.0300   55.6063   37.2013 cb         1 CLA     -0.035900
     43 C4         82.4652   50.9432   36.7714 a3         1 CLA     -0.053300
     44 C4A        78.7081   58.6208   38.3331 ac         1 CLA      0.001800
     45 C4B        76.8860   60.1118   42.0800 cn         1 CLA     -0.020900
     46 C4C        73.2289   57.6712   41.2624 cr         1 CLA     -0.044400
     47 C4D        75.1126   56.4039   37.6650 c6         1 CLA     -0.046000
     48 C5         84.2935   52.9268   36.6628 a2         1 CLA     -0.070400
     49 C6         84.5982   53.9146   37.7402 a2         1 CLA      0.043900
     50 C7         86.0912   53.8916   37.9922 a2         1 CLA     -0.150000
     51 C8         86.5858   54.8961   38.9647 a1         1 CLA      0.064200
     52 C9         88.1376   54.7766   38.9183 a3         1 CLA     -0.259300
     53 C10        86.0131   54.9205   40.4360 a2         1 CLA     -0.071900
     54 C11        84.6466   55.4725   40.6068 a2         1 CLA      0.014500
     55 C12        84.4960   56.3799   41.8519 a2         1 CLA     -0.112100
     56 C13        83.0569   56.8823   42.1361 a1         1 CLA      0.089200
     57 C14        82.3167   57.5932   40.9394 a3         1 CLA     -0.239100
     58 C15        82.9237   57.7425   43.3665 a2         1 CLA     -0.102200
     59 C16        83.5293   59.1679   43.4080 a2         1 CLA      0.023900
     60 C17        83.5841   59.7502   44.8413 a2         1 CLA     -0.105700
     61 C18        82.3285   60.4359   45.4837 a1         1 CLA      0.206800
     62 C19        81.1733   59.4502   45.6651 a3         1 CLA     -0.280100
     63 C20        82.6740   60.8805   46.9327 a3         1 CLA     -0.280100
     64 NC         74.4407   58.3190   41.2298 nx         1 CLA     -0.309200
     65 MG         75.9194   58.3136   39.7547 mg         1 CLA      0.895000
     66 HMD3       70.8919   55.6131   38.2064 dc         1 CLA      0.064300
     67 HMD2       71.5708   54.4469   36.9603 dc         1 CLA      0.064300
     68 HMD1       71.7088   54.2012   38.7306 dc         1 CLA      0.064300
     69 HMC3       74.1924   59.5989   45.1577 dc         1 CLA      0.052100
     70 HMC2       72.4496   59.2214   45.1493 dc         1 CLA      0.052100
     71 HMC1       73.6584   58.0227   45.2483 dc         1 CLA      0.052100
     72 HMB3       81.1850   60.3840   41.5550 dc         1 CLA      0.063600
     73 HMB2       80.7143   61.7288   40.7048 dc         1 CLA      0.063600
     74 HMB1       80.6036   61.9509   42.3836 dc         1 CLA      0.063600
     75 HMA3       80.6520   56.5990   38.5600 dc         1 CLA      0.058300
     76 HMA2       81.5996   56.9726   36.9973 dc         1 CLA      0.058300
     77 HMA1       81.5690   58.1540   38.3648 dc         1 CLA      0.058300
     78 HED3       76.5944   51.5540   35.3778 dc         1 CLA      0.079300
     79 HED2       77.9999   51.9234   36.3498 dc         1 CLA      0.079300
     80 HED1       76.4475   51.1921   37.0877 dc         1 CLA      0.079300
     81 HBC3       70.4274   55.3598   43.7520 dc         1 CLA      0.016300
     82 HBC2       71.6346   54.9858   42.5378 dc         1 CLA      0.016300
     83 HBC1       72.1881   55.4479   44.1882 dc         1 CLA      0.016300
     84 HBB2       77.8849   61.8687   45.9979 da         1 CLA      0.183000
     85 HBB1       77.6427   60.1188   45.3854 da         1 CLA      0.183000
     86 HBA2       80.0549   57.5035   33.0637 dc         1 CLA      0.029400
     87 HBA1       80.9081   57.5800   34.6032 dc         1 CLA      0.029400
     88 HAC2       70.9060   57.5643   43.8823 dc         1 CLA      0.029300
     89 HAC1       70.5825   57.0650   42.2576 dc         1 CLA      0.029300
     90 HAA2       77.8780   56.9224   34.2381 dc         1 CLA      0.028700
     91 HAA1       78.6535   58.4716   34.6606 dc         1 CLA      0.028700
     92 H203       83.1304   60.0625   47.5330 dc         1 CLA      0.065600
     93 H202       83.4629   61.6224   46.9286 dc         1 CLA      0.065600
     94 H201       81.7503   61.2993   47.4277 dc         1 CLA      0.065600
     95 H193       81.6098   58.5404   46.0495 dc         1 CLA      0.065600
     96 H192       80.3554   59.9506   46.2269 dc         1 CLA      0.065600
     97 H191       80.8656   59.3221   44.6334 dc         1 CLA      0.065600
     98 H172       83.7854   58.9114   45.5054 dc         1 CLA      0.027600
     99 H171       84.3632   60.4913   44.8810 dc         1 CLA      0.027600
    100 H162       84.5329   59.1349   43.0029 dc         1 CLA      0.002900
    101 H161       82.9953   59.8332   42.7432 dc         1 CLA      0.002900
    102 H152       81.8399   57.8318   43.6099 dc         1 CLA      0.029100
    103 H151       83.4131   57.1871   44.1724 dc         1 CLA      0.029100
    104 H143       82.2177   56.9123   40.1179 dc         1 CLA      0.063600
    105 H142       81.3079   57.9078   41.1800 dc         1 CLA      0.063600
    106 H141       82.9556   58.4194   40.5483 dc         1 CLA      0.063600
    107 H122       84.7338   55.8874   42.8382 dc         1 CLA      0.032500
    108 H121       85.1856   57.2523   41.6518 dc         1 CLA      0.032500
    109 H112       84.4152   56.1745   39.8543 dc         1 CLA      0.006600
    110 H111       83.9039   54.7449   40.6050 dc         1 CLA      0.006600
    111 H102       86.0308   53.9467   40.8787 dc         1 CLA      0.024100
    112 H101       86.7033   55.5584   41.0033 dc         1 CLA      0.024100
    113 HHD        71.7172   56.3646   40.3865 da         1 CLA      0.174300
    114 HHC        75.6417   60.3344   43.7094 da         1 CLA      0.136800
    115 HHB        80.1690   59.7394   39.1383 da         1 CLA      0.138300
    116 HBD        75.7904   55.9007   34.8751 dc         1 CLA      0.107700
    117 HAB        78.4251   62.6233   43.7302 da         1 CLA      0.155200
    118 H93        88.5335   53.9037   39.4723 dc         1 CLA      0.069500
    119 H92        88.4943   54.7097   37.8644 dc         1 CLA      0.069500
    120 H91        88.5978   55.6518   39.3316 dc         1 CLA      0.069500
    121 H8         86.4156   55.8618   38.4267 dc         1 CLA      0.029300
    122 H72        86.3661   52.8439   38.2869 dc         1 CLA      0.044400
    123 H71        86.5361   54.0010   37.0506 dc         1 CLA      0.044400
    124 H62        84.1014   54.8469   37.4959 dc         1 CLA      0.015600
    125 H61        84.1918   53.4859   38.6691 dc         1 CLA      0.015600
    126 H52        84.8929   52.0172   36.7816 dc         1 CLA      0.033200
    127 H51        84.6556   53.3292   35.7166 dc         1 CLA      0.033200
    128 H43        81.4366   50.7089   36.7270 dc         1 CLA      0.037000
    129 H42        83.0011   50.4686   35.9597 dc         1 CLA      0.037000
    130 H41        82.8216   50.5084   37.6642 dc         1 CLA      0.037000
    131 H3A        79.9600   58.9585   36.5724 dc         1 CLA      0.041100
    132 H2A        79.0743   56.0770   36.5278 dc         1 CLA      0.083100
    133 H2         81.4307   53.7673   37.1774 da         1 CLA      0.180900
    134 H18        82.0096   61.3389   45.0270 dc         1 CLA     -0.003900
    135 H13        82.5233   55.9367   42.3470 dc         1 CLA      0.019700
    136 H12        80.3198   53.1576   34.7751 dc         1 CLA      0.120400
    137 H11        82.1895   53.3444   34.3660 dc         1 CLA      0.120400
    138 C1         68.5538   60.5023   50.3866 Z1         2 LUT      0.509236
    139 C2         67.1653   60.1608   50.9944 Z2         2 LUT     -0.434695
    140 C3         66.2272   61.3573   51.0871 Z3         2 LUT      0.437453
    141 O3         65.9346   61.7425   52.4391 S1         2 LUT     -0.547129
    142 C4         66.7141   62.5883   50.3482 Z4         2 LUT     -0.468603
    143 C5         67.4984   62.3986   49.0595 Z5         2 LUT      0.279246
    144 C6         68.3496   61.3359   49.0997 Z6         2 LUT     -0.305473
    145 C7         68.6935   60.6872   47.8147 Z7         2 LUT      0.069402
    146 C8         69.3557   61.4021   46.8586 Z8         2 LUT     -0.191631
    147 C9         69.7470   60.9717   45.5208 Z9         2 LUT      0.196698
    148 C10        70.6322   61.7484   44.8562 Y1         2 LUT     -0.208611
    149 C11        71.3674   61.6906   43.5936 Y2         2 LUT      0.030784
    150 C12        72.4380   62.4421   43.3093 Y3         2 LUT     -0.220316
    151 C13        73.2764   62.3282   42.0755 Y4         2 LUT      0.215937
    152 C14        74.4900   63.0654   41.9800 Y5         2 LUT     -0.185793
    153 C15        75.6392   62.9413   41.0580 Y6         2 LUT     -0.057835
    154 C16        69.2171   59.1503   50.1880 Y7         2 LUT     -0.405615
    155 C17        69.4619   61.3421   51.4099 Y7         2 LUT     -0.405615
    156 C18        66.9194   62.9641   47.8049 Y9         2 LUT     -0.369639
    157 C19        69.0328   59.8613   44.8339 W1         2 LUT     -0.333362
    158 C20        72.6639   61.4503   40.9757 W2         2 LUT     -0.323439
    159 C21        87.4456   64.4390   35.4461 Z1         2 LUT      0.406104
    160 C22        88.3072   64.0279   34.2957 Z2         2 LUT     -0.404965
    161 C23        88.6209   65.1618   33.3141 Z3         2 LUT      0.391255
    162 O23        89.3679   64.6219   32.2108 S1         2 LUT     -0.528210
    163 C24        87.3032   65.8275   33.0074 W6         2 LUT     -0.258361
    164 C25        86.1045   65.7674   33.6168 Z5         2 LUT      0.133546
    165 C26        86.0305   64.8490   34.8822 W8         2 LUT     -0.147008
    166 C27        85.0562   65.4568   35.8485 Z7         2 LUT      0.023843
    167 C28        83.9612   64.8609   36.4400 Z8         2 LUT     -0.216987
    168 C29        83.1422   65.2756   37.6154 Z9         2 LUT      0.206524
    169 C30        82.0579   64.4661   37.9963 Y1         2 LUT     -0.215556
    170 C31        81.2524   64.7000   39.1396 Y2         2 LUT      0.025142
    171 C32        80.1034   64.0322   39.4283 Y3         2 LUT     -0.212209
    172 C33        79.1758   64.2196   40.5030 Y4         2 LUT      0.240937
    173 C34        77.9985   63.5603   40.5098 Y5         2 LUT     -0.218862
    174 C35        76.8412   63.4865   41.4113 Y6         2 LUT     -0.023547
    175 C36        88.1254   65.4340   36.4380 Y7         2 LUT     -0.393485
    176 C37        87.3640   63.1348   36.3991 Y7         2 LUT     -0.393485
    177 C38        84.9054   66.5069   33.1256 Y9         2 LUT     -0.387526
    178 C39        83.4847   66.6481   38.1937 W1         2 LUT     -0.322618
    179 C40        79.6261   65.0443   41.6668 W2         2 LUT     -0.358472
    180 H403       78.8536   65.2730   42.3689 R7         2 LUT      0.097720
    181 H402       80.4520   64.5837   42.1652 R7         2 LUT      0.097720
    182 H401       80.0897   65.9405   41.2824 R7         2 LUT      0.097720
    183 H393       83.6100   66.5376   39.2396 R4         2 LUT      0.082505
    184 H392       84.3760   67.1187   37.7646 R4         2 LUT      0.082505
    185 H391       82.6053   67.2533   37.9821 R4         2 LUT      0.082505
    186 H383       85.0991   67.0029   32.1934 R1         2 LUT      0.104030
    187 H382       84.1139   65.7574   32.8648 R1         2 LUT      0.104030
    188 H381       84.5632   67.2426   33.8822 R1         2 LUT      0.104030
    189 H373       88.3086   62.6713   36.7400 T4         2 LUT      0.089537
    190 H372       86.9311   63.4081   37.3639 T4         2 LUT      0.089537
    191 H371       86.7412   62.3338   36.0468 T4         2 LUT      0.089537
    192 H363       87.4566   65.5911   37.3275 T4         2 LUT      0.089537
    193 H362       89.1158   65.1129   36.9377 T4         2 LUT      0.089537
    194 H361       88.2108   66.4384   35.9673 T4         2 LUT      0.089537
    195 H222       89.2718   63.6499   34.6198 U2         2 LUT      0.127376
    196 H221       87.7457   63.3488   33.5577 U2         2 LUT      0.127376
    197 H203       73.3276   61.3179   40.1599 R7         2 LUT      0.087068
    198 H202       72.5517   60.3548   41.1845 R7         2 LUT      0.087068
    199 H201       71.6301   61.7739   40.6670 R7         2 LUT      0.087068
    200 H193       69.7275   59.2377   44.2978 R4         2 LUT      0.089716
    201 H192       68.4147   59.1997   45.5004 R4         2 LUT      0.089716
    202 H191       68.3291   60.1502   44.0518 R4         2 LUT      0.089716
    203 H183       67.6702   63.3328   47.0745 R1         2 LUT      0.094572
    204 H182       66.3078   62.2371   47.2680 R1         2 LUT      0.094572
    205 H181       66.3489   63.8302   48.0718 R1         2 LUT      0.094572
    206 H173       70.4904   61.4868   51.1698 T4         2 LUT      0.093752
    207 H172       69.1158   62.3971   51.4173 T4         2 LUT      0.093752
    208 H171       69.5946   60.9593   52.4916 T4         2 LUT      0.093752
    209 H163       69.5022   58.6511   51.1009 T4         2 LUT      0.093752
    210 H162       68.7074   58.4228   49.5489 T4         2 LUT      0.093752
    211 H161       70.1700   59.3294   49.7385 T4         2 LUT      0.093752
    212 HO3        65.2167   61.2388   52.8377 Q1         2 LUT      0.300121
    213 H8         69.5473   62.4172   47.1197 U7         2 LUT      0.080784
    214 H7         68.3161   59.6737   47.6721 U6         2 LUT      0.042190
    215 H42        65.7278   62.9988   50.0892 U5         2 LUT      0.145166
    216 H41        67.1805   63.3038   51.0471 U5         2 LUT      0.145166
    217 H35        76.8747   64.0260   42.3122 T3         2 LUT      0.077919
    218 H34        77.7409   62.9103   39.6277 T2         2 LUT      0.073626
    219 H32        79.8624   63.1907   38.7519 T1         2 LUT      0.092510
    220 H31        81.5054   65.5626   39.7216 U9         2 LUT      0.070048
    221 H30        81.9578   63.4671   37.4641 U8         2 LUT      0.085442
    222 H3         65.3559   61.1806   50.5313 U3         2 LUT     -0.031596
    223 H28        83.8015   63.8911   36.1769 U7         2 LUT      0.084728
    224 H27        85.3639   66.4344   36.1290 U6         2 LUT      0.087291
    225 H26        85.7937   63.9182   34.4086 Q6         2 LUT      0.075325
    226 H24        87.3850   66.4772   32.1638 Q5         2 LUT      0.094482
    227 H23        89.2429   65.8606   33.7924 U3         2 LUT     -0.024869
    228 H22        66.7094   59.4323   50.3380 U2         2 LUT      0.127376
    229 H21        67.2772   59.8359   52.0125 U2         2 LUT      0.127376
    230 H15        75.4625   62.5047   40.0712 T3         2 LUT      0.093200
    231 H14        74.7638   63.7765   42.7820 T2         2 LUT      0.068865
    232 H12        72.6535   63.1439   44.0943 T1         2 LUT      0.095507
    233 H11        71.0086   60.8575   42.9886 U9         2 LUT      0.068930
    234 H10        71.1069   62.4211   45.5777 U8         2 LUT      0.083911
    235 H1         88.8326   64.3075   31.5099 Q1         2 LUT      0.297311
@<TRIPOS>BOND
    1     6     1 1
    2     7     2 1
    3     8     3 1
    4     9     4 1
    5    11     4 1
    6    12     6 1
    7    13     9 1
    8    16     9 1
    9    25     5 1
   10    25    16 1
   11    26    10 1
   12    26    17 1
   13    27    18 1
   14    28    14 1
   15    28    19 1
   16    29    12 1
   17    30    13 1
   18    31    24 1
   19    32     1 1
   20    32    25 1
   21    33    21 1
   22    33    26 1
   23    34    22 1
   24    34    27 1
   25    35    23 1
   26    35    28 1
   27    36    12 1
   28    36    24 1
   29    37    13 1
   30    37    15 1
   31    38    31 1
   32    39    20 1
   33    39    32 1
   34    40     2 1
   35    40    33 1
   36    41     3 1
   37    41    34 1
   38    42     4 1
   39    42    35 1
   40    43    38 1
   41    44     5 1
   42    44    17 1
   43    44    39 1
   44    45    10 1
   45    45    18 1
   46    45    40 1
   47    46    19 1
   48    46    41 1
   49    47    14 1
   50    47    16 1
   51    47    42 1
   52    48    38 1
   53    49    48 1
   54    50    49 1
   55    51    50 1
   56    52    51 1
   57    53    51 1
   58    54    53 1
   59    55    54 1
   60    56    55 1
   61    57    56 1
   62    58    56 1
   63    59    58 1
   64    60    59 1
   65    61    60 1
   66    62    61 1
   67    63    61 1
   68    64    27 1
   69    64    46 1
   70    65     5 1
   71    65    10 1
   72    65    64 1
   73    65    14 1
   74    66    23 1
   75    67    23 1
   76    68    23 1
   77    69    22 1
   78    70    22 1
   79    71    22 1
   80    72    21 1
   81    73    21 1
   82    74    21 1
   83    75    20 1
   84    76    20 1
   85    77    20 1
   86    78    15 1
   87    79    15 1
   88    80    15 1
   89    81     8 1
   90    82     8 1
   91    83     8 1
   92    84     7 1
   93    85     7 1
   94    86     6 1
   95    87     6 1
   96    88     3 1
   97    89     3 1
   98    90     1 1
   99    91     1 1
  100    92    63 1
  101    93    63 1
  102    94    63 1
  103    95    62 1
  104    96    62 1
  105    97    62 1
  106    98    60 1
  107    99    60 1
  108   100    59 1
  109   101    59 1
  110   102    58 1
  111   103    58 1
  112   104    57 1
  113   105    57 1
  114   106    57 1
  115   107    55 1
  116   108    55 1
  117   109    54 1
  118   110    54 1
  119   111    53 1
  120   112    53 1
  121   113    19 1
  122   114    18 1
  123   115    17 1
  124   116     9 1
  125   117     2 1
  126   118    52 1
  127   119    52 1
  128   120    52 1
  129   121    51 1
  130   122    50 1
  131   123    50 1
  132   124    49 1
  133   125    49 1
  134   126    48 1
  135   127    48 1
  136   128    43 1
  137   129    43 1
  138   130    43 1
  139   131    39 1
  140   132    32 1
  141   133    31 1
  142   134    61 1
  143   135    56 1
  144   136    24 1
  145   137    24 1
  146   139   138 1
  147   140   139 1
  148   141   140 1
  149   142   140 1
  150   143   142 1
  151   144   138 1
  152   144   143 1
  153   145   144 1
  154   146   145 1
  155   147   146 1
  156   148   147 1
  157   149   148 1
  158   150   149 1
  159   151   150 1
  160   152   151 1
  161   153   152 1
  162   154   138 1
  163   155   138 1
  164   156   143 1
  165   157   147 1
  166   158   151 1
  167   160   159 1
  168   161   160 1
  169   162   161 1
  170   163   161 1
  171   164   163 1
  172   165   159 1
  173   165   164 1
  174   166   165 1
  175   167   166 1
  176   168   167 1
  177   169   168 1
  178   170   169 1
  179   171   170 1
  180   172   171 1
  181   173   172 1
  182   174   153 1
  183   174   173 1
  184   175   159 1
  185   176   159 1
  186   177   164 1
  187   178   168 1
  188   179   172 1
  189   180   179 1
  190   181   179 1
  191   182   179 1
  192   183   178 1
  193   184   178 1
  194   185   178 1
  195   186   177 1
  196   187   177 1
  197   188   177 1
  198   189   176 1
  199   190   176 1
  200   191   176 1
  201   192   175 1
  202   193   175 1
  203   194   175 1
  204   195   160 1
  205   196   160 1
  206   197   158 1
  207   198   158 1
  208   199   158 1
  209   200   157 1
  210   201   157 1
  211   202   157 1
  212   203   156 1
  213   204   156 1
  214   205   156 1
  215   206   155 1
  216   207   155 1
  217   208   155 1
  218   209   154 1
  219   210   154 1
  220   211   154 1
  221   212   141 1
  222   213   146 1
  223   214   145 1
  224   215   142 1
  225   216   142 1
  226   217   174 1
  227   218   173 1
  228   219   171 1
  229   220   170 1
  230   221   169 1
  231   222   140 1
  232   223   167 1
  233   224   166 1
  234   225   165 1
  235   226   163 1
  236   227   161 1
  237   228   139 1
  238   229   139 1
  239   230   153 1
  240   231   152 1
  241   232   150 1
  242   233   149 1
  243   234   148 1
  244   235   162 1
  245   65    153 1
  246   65    174 1
@<TRIPOS>SUBSTRUCTURE
      1 CLA               1 ****               0 ****  **** 
      2 LUT             138 ****               0 ****  **** 
