@<TRIPOS>MOLECULE
Cpptraj generated mol2 file.
  235   246     2     0     0
SMALL
USER_CHARGES


@<TRIPOS>ATOM
      1 CAA        76.6484   57.8734   33.7420 a2         1 CLA     -0.055900
      2 CAB        76.8982   61.1386   42.7817 c8         1 CLA     -0.148500
      3 CAC        69.9538   57.3103   42.2579 a2         1 CLA     -0.012600
      4 CAD        72.7833   55.0255   34.9524 ck         1 CLA      0.398800
      5 NA         75.7887   58.1569   37.0466 ns         1 CLA     -0.225500
      6 CBA        77.7712   58.0466   32.7181 a2         1 CLA     -0.135000
      7 CBB        78.0539   61.2484   43.4756 c0         1 CLA     -0.395200
      8 CBC        70.1870   55.8397   42.4771 a3         1 CLA     -0.037700
      9 CBD        74.2638   55.5768   34.6979 a1         1 CLA     -0.053900
     10 NB         75.7372   59.6933   39.6795 nm         1 CLA     -0.295700
     11 OBD        72.1898   54.2258   34.2198 o2         1 CLA     -0.494600
     12 CGA        78.5066   56.8481   32.1981 c4         1 CLA      0.827000
     13 CGD        75.3018   54.4213   34.5907 c4         1 CLA      0.655300
     14 ND         73.0609   57.1691   37.7506 nm         1 CLA     -0.291600
     15 CED        76.5622   52.8840   36.0802 a3         1 CLA      0.005400
     16 CHA        74.5156   56.5830   35.7472 cs         1 CLA     -0.123800
     17 CHB        77.5571   59.5390   38.1103 aa         1 CLA     -0.291900
     18 CHC        74.3541   59.8813   41.7160 aa         1 CLA     -0.090400
     19 CHD        71.2009   57.0601   39.3624 aa         1 CLA     -0.052000
     20 CMA        79.1808   57.4796   36.3016 a3         1 CLA     -0.230700
     21 CMB        79.0333   61.2466   40.2779 a3         1 CLA     -0.180800
     22 CMC        72.0667   59.2822   43.7107 a3         1 CLA     -0.134000
     23 CMD        70.0781   54.8331   37.3261 a3         1 CLA     -0.141100
     24 C1         79.6645   54.8170   32.7862 a2         1 CLA      0.023000
     25 C1A        75.6661   57.3491   35.9502 ac         1 CLA     -0.015100
     26 C1B        77.0069   59.9953   39.3348 cr         1 CLA      0.054700
     27 C1C        73.1418   59.2422   41.3479 cn         1 CLA     -0.005600
     28 C1D        71.8335   56.6511   38.1597 ap         1 CLA     -0.047300
     29 O1A        78.4035   56.4142   31.0435 o2         1 CLA     -0.610800
     30 O1D        75.9364   54.1110   33.6156 o2         1 CLA     -0.558200
     31 C2         80.3312   54.2282   34.0574 c8         1 CLA     -0.325100
     32 C2A        76.9043   57.3484   35.1132 a1         1 CLA      0.098600
     33 C2B        77.6605   60.7336   40.3545 cb         1 CLA      0.088500
     34 C2C        72.0138   59.0538   42.2991 cb         1 CLA      0.053700
     35 C2D        71.3740   55.6165   37.2327 cb         1 CLA      0.058900
     36 O2A        79.2139   56.1320   33.1700 o1         1 CLA     -0.437200
     37 O2D        75.4965   53.9055   35.8295 o1         1 CLA     -0.357600
     38 C3         80.8678   52.9731   34.1679 c5         1 CLA      0.031200
     39 C3A        77.9279   58.3220   35.8546 a1         1 CLA      0.166800
     40 C3B        76.7728   60.6866   41.4163 cb         1 CLA      0.035000
     41 C3C        71.0948   58.1539   41.6392 cb         1 CLA     -0.089900
     42 C3D        72.3614   55.6227   36.2686 cb         1 CLA     -0.035900
     43 C4         80.0199   51.7382   34.6503 a3         1 CLA     -0.053300
     44 C4A        77.0719   58.6718   37.1261 ac         1 CLA      0.001800
     45 C4B        75.5315   60.0542   40.9577 cn         1 CLA     -0.020900
     46 C4C        71.6793   57.9966   40.2709 cr         1 CLA     -0.044400
     47 C4D        73.3778   56.5192   36.6092 c6         1 CLA     -0.046000
     48 C5         82.3844   52.8926   34.0419 a2         1 CLA     -0.070400
     49 C6         83.3190   54.0364   34.4942 a2         1 CLA      0.043900
     50 C7         83.1720   54.3690   35.9851 a2         1 CLA     -0.150000
     51 C8         84.0643   55.5381   36.5551 a1         1 CLA      0.064200
     52 C9         85.6278   55.3191   36.2783 a3         1 CLA     -0.259300
     53 C10        83.7601   55.7559   38.0546 a2         1 CLA     -0.071900
     54 C11        82.4261   56.0828   38.6447 a2         1 CLA      0.014500
     55 C12        82.5776   56.4211   40.1490 a2         1 CLA     -0.112100
     56 C13        81.2818   56.7529   40.9237 a1         1 CLA      0.089200
     57 C14        80.4414   57.8414   40.1890 a3         1 CLA     -0.239100
     58 C15        81.4105   57.1158   42.3737 a2         1 CLA     -0.102200
     59 C16        82.2475   58.3425   42.6337 a2         1 CLA      0.023900
     60 C17        82.3627   58.7460   44.1252 a2         1 CLA     -0.105700
     61 C18        83.0235   60.1970   44.3580 a1         1 CLA      0.206800
     62 C19        84.4245   60.3897   43.6202 a3         1 CLA     -0.280100
     63 C20        82.1157   61.4137   44.2049 a3         1 CLA     -0.280100
     64 NC         72.8847   58.7084   40.1449 nx         1 CLA     -0.309200
     65 MG         74.2519   58.5379   38.6246 mg         1 CLA      0.895000
     66 HMD3       69.9813   54.1124   36.5199 dc         1 CLA      0.064300
     67 HMD2       69.9596   54.2572   38.2625 dc         1 CLA      0.064300
     68 HMD1       69.2904   55.5877   37.1922 dc         1 CLA      0.064300
     69 HMC3       71.8669   60.3514   43.7674 dc         1 CLA      0.052100
     70 HMC2       71.2683   58.7225   44.1899 dc         1 CLA      0.052100
     71 HMC1       72.9873   58.9311   44.1090 dc         1 CLA      0.052100
     72 HMB3       79.3815   61.8379   41.0571 dc         1 CLA      0.063600
     73 HMB2       79.6454   60.3865   40.1800 dc         1 CLA      0.063600
     74 HMB1       79.0975   61.8658   39.3791 dc         1 CLA      0.063600
     75 HMA3       79.8284   57.3110   35.4247 dc         1 CLA      0.058300
     76 HMA2       79.6672   57.8064   37.1918 dc         1 CLA      0.058300
     77 HMA1       78.8148   56.5251   36.6242 dc         1 CLA      0.058300
     78 HED3       76.6849   52.7666   37.1638 dc         1 CLA      0.079300
     79 HED2       76.1708   51.8956   35.7187 dc         1 CLA      0.079300
     80 HED1       77.5210   53.1775   35.6396 dc         1 CLA      0.079300
     81 HBC3       71.1877   55.7172   42.9642 dc         1 CLA      0.016300
     82 HBC2       69.4273   55.3641   43.0139 dc         1 CLA      0.016300
     83 HBC1       70.2266   55.3155   41.5420 dc         1 CLA      0.016300
     84 HBB2       77.9783   61.4567   44.5587 da         1 CLA      0.183000
     85 HBB1       79.0449   60.9507   43.0723 da         1 CLA      0.183000
     86 HBA2       77.4289   58.5033   31.8201 dc         1 CLA      0.029400
     87 HBA1       78.4313   58.7838   33.2032 dc         1 CLA      0.029400
     88 HAC2       69.7481   57.7168   43.2675 dc         1 CLA      0.029300
     89 HAC1       69.1039   57.4227   41.6757 dc         1 CLA      0.029300
     90 HAA2       75.8466   57.1954   33.3476 dc         1 CLA      0.028700
     91 HAA1       76.1310   58.7743   33.8930 dc         1 CLA      0.028700
     92 H203       82.6353   62.3049   44.4770 dc         1 CLA      0.065600
     93 H202       81.8718   61.4866   43.1496 dc         1 CLA      0.065600
     94 H201       81.1111   61.4058   44.6709 dc         1 CLA      0.065600
     95 H193       84.8921   61.2949   43.9566 dc         1 CLA      0.065600
     96 H192       85.1397   59.5969   43.9018 dc         1 CLA      0.065600
     97 H191       84.2474   60.5495   42.5428 dc         1 CLA      0.065600
     98 H172       81.2905   58.7787   44.4065 dc         1 CLA      0.027600
     99 H171       82.8141   57.9284   44.6283 dc         1 CLA      0.027600
    100 H162       83.2829   58.2649   42.2358 dc         1 CLA      0.002900
    101 H161       81.8272   59.1860   42.1143 dc         1 CLA      0.002900
    102 H152       80.4464   57.2411   42.8742 dc         1 CLA      0.029100
    103 H151       81.9571   56.2710   42.7757 dc         1 CLA      0.029100
    104 H143       79.5942   57.9255   40.9214 dc         1 CLA      0.063600
    105 H142       81.0097   58.8056   39.9920 dc         1 CLA      0.063600
    106 H141       80.0301   57.4564   39.2525 dc         1 CLA      0.063600
    107 H122       83.0113   55.5049   40.5794 dc         1 CLA      0.032500
    108 H121       83.2701   57.1623   40.2467 dc         1 CLA      0.032500
    109 H112       82.1298   57.0483   38.1911 dc         1 CLA      0.006600
    110 H111       81.6695   55.2727   38.4648 dc         1 CLA      0.006600
    111 H102       83.9880   54.8500   38.6063 dc         1 CLA      0.024100
    112 H101       84.4767   56.5321   38.3428 dc         1 CLA      0.024100
    113 HHD        70.2307   56.5290   39.6070 da         1 CLA      0.174300
    114 HHC        74.4225   60.2385   42.7462 da         1 CLA      0.136800
    115 HHB        78.5999   59.8742   37.8577 da         1 CLA      0.138300
    116 HBD        74.2792   56.1350   33.7474 dc         1 CLA      0.107700
    117 HAB        75.9995   61.2358   43.4214 da         1 CLA      0.155200
    118 H93        85.7974   55.4360   35.2149 dc         1 CLA      0.069500
    119 H92        86.1639   56.0070   36.8764 dc         1 CLA      0.069500
    120 H91        85.8767   54.3171   36.5203 dc         1 CLA      0.069500
    121 H8         83.7393   56.3489   35.9705 dc         1 CLA      0.029300
    122 H72        82.1737   54.3324   36.2929 dc         1 CLA      0.044400
    123 H71        83.6586   53.4999   36.3889 dc         1 CLA      0.044400
    124 H62        84.3286   53.6268   34.3776 dc         1 CLA      0.015600
    125 H61        83.1697   54.8715   33.8462 dc         1 CLA      0.015600
    126 H52        82.6221   51.8932   34.3855 dc         1 CLA      0.033200
    127 H51        82.5878   52.7517   32.9762 dc         1 CLA      0.033200
    128 H43        78.9679   51.8961   34.5028 dc         1 CLA      0.037000
    129 H42        80.2496   50.9262   33.9711 dc         1 CLA      0.037000
    130 H41        80.2409   51.2877   35.6459 dc         1 CLA      0.037000
    131 H3A        78.1859   59.1952   35.2045 dc         1 CLA      0.041100
    132 H2A        77.1191   56.2695   35.0757 dc         1 CLA      0.083100
    133 H2         80.3690   54.8805   34.9648 da         1 CLA      0.180900
    134 H18        83.2202   60.2180   45.4209 dc         1 CLA     -0.003900
    135 H13        80.7244   55.8184   40.8841 dc         1 CLA      0.019700
    136 H12        78.8242   54.1270   32.4112 dc         1 CLA      0.120400
    137 H11        80.3348   54.7733   31.9288 dc         1 CLA      0.120400
    138 C1         67.1945   61.3107   50.3999 Z1         2 LUT      0.509236
    139 C2         67.5143   62.5872   51.2549 Z2         2 LUT     -0.434695
    140 C3         66.3350   63.5506   51.4972 Z3         2 LUT      0.437453
    141 O3         66.9419   64.7283   52.0594 S1         2 LUT     -0.547129
    142 C4         65.6099   63.7549   50.2141 Z4         2 LUT     -0.468603
    143 C5         66.1038   63.0197   48.9532 Z5         2 LUT      0.279246
    144 C6         66.8543   61.8923   48.9596 Z6         2 LUT     -0.305473
    145 C7         67.7249   61.5171   47.7622 Z7         2 LUT      0.069402
    146 C8         68.5563   62.2313   46.9571 Z8         2 LUT     -0.191631
    147 C9         69.1752   61.9732   45.6430 Z9         2 LUT      0.196698
    148 C10        70.0634   62.8637   45.1150 Y1         2 LUT     -0.208611
    149 C11        70.7935   62.8179   43.8517 Y2         2 LUT      0.030784
    150 C12        71.9920   63.4404   43.5643 Y3         2 LUT     -0.220316
    151 C13        72.7110   63.3563   42.2564 Y4         2 LUT      0.215937
    152 C14        73.9595   64.0029   42.2341 Y5         2 LUT     -0.185793
    153 C15        74.9909   63.9720   41.2288 Y6         2 LUT     -0.057835
    154 C16        65.9420   60.7078   51.0834 Y7         2 LUT     -0.405615
    155 C17        68.3476   60.2555   50.4857 Y7         2 LUT     -0.405615
    156 C18        65.9401   64.0131   47.8192 Y9         2 LUT     -0.369639
    157 C19        68.6098   60.8481   44.8011 W1         2 LUT     -0.333362
    158 C20        72.1470   62.5425   41.0639 W2         2 LUT     -0.323439
    159 C21        85.8765   64.4100   34.2558 Z1         2 LUT      0.406104
    160 C22        86.4649   63.7108   32.9603 Z2         2 LUT     -0.404965
    161 C23        86.5999   64.7401   31.8116 Z3         2 LUT      0.391255
    162 O23        87.1963   63.9422   30.8261 S1         2 LUT     -0.528210
    163 C24        85.2570   65.5129   31.6000 W6         2 LUT     -0.258361
    164 C25        84.3557   65.6776   32.5924 Z5         2 LUT      0.133546
    165 C26        84.4106   64.9595   33.9186 W8         2 LUT     -0.147008
    166 C27        83.9042   65.9338   35.0184 Z7         2 LUT      0.023843
    167 C28        82.6931   65.6298   35.5930 Z8         2 LUT     -0.216987
    168 C29        82.1888   66.0058   36.9988 Z9         2 LUT      0.206524
    169 C30        80.9620   65.4195   37.3691 Y1         2 LUT     -0.215556
    170 C31        80.4238   65.5158   38.7254 Y2         2 LUT      0.025142
    171 C32        79.2068   64.9466   39.0121 Y3         2 LUT     -0.212209
    172 C33        78.4417   65.0422   40.2544 Y4         2 LUT      0.240937
    173 C34        77.2630   64.3377   40.4229 Y5         2 LUT     -0.218862
    174 C35        76.2276   64.5156   41.3781 Y6         2 LUT     -0.023547
    175 C36        86.8914   65.4446   34.7935 Y7         2 LUT     -0.393485
    176 C37        85.7799   63.2627   35.1564 Y7         2 LUT     -0.393485
    177 C38        83.1231   66.4111   32.2274 Y9         2 LUT     -0.387526
    178 C39        83.1022   66.7025   37.9966 W1         2 LUT     -0.322618
    179 C40        78.9523   65.9815   41.3379 W2         2 LUT     -0.358472
    180 H403       79.9823   66.0923   41.4366 R7         2 LUT      0.097720
    181 H402       78.5326   66.9616   41.2200 R7         2 LUT      0.097720
    182 H401       78.4308   65.6379   42.2560 R7         2 LUT      0.097720
    183 H393       82.9177   66.5762   39.0398 R4         2 LUT      0.082505
    184 H392       84.1073   66.3367   37.9217 R4         2 LUT      0.082505
    185 H391       83.2732   67.7580   37.8308 R4         2 LUT      0.082505
    186 H383       82.4980   65.6998   31.7011 R1         2 LUT      0.104030
    187 H382       82.6865   66.7133   33.1867 R1         2 LUT      0.104030
    188 H381       83.2488   67.3016   31.5586 R1         2 LUT      0.104030
    189 H373       85.0427   62.5664   34.7641 T4         2 LUT      0.089537
    190 H372       86.6595   62.6807   35.3372 T4         2 LUT      0.089537
    191 H371       85.3421   63.5727   36.0887 T4         2 LUT      0.089537
    192 H363       87.8811   65.0243   34.9091 T4         2 LUT      0.089537
    193 H362       86.8331   66.3686   34.2155 T4         2 LUT      0.089537
    194 H361       86.5729   65.6469   35.7890 T4         2 LUT      0.089537
    195 H222       87.3373   63.1233   33.1855 U2         2 LUT      0.127376
    196 H221       85.7324   62.9226   32.5946 U2         2 LUT      0.127376
    197 H203       71.3135   63.0951   40.6637 R7         2 LUT      0.087068
    198 H202       72.9055   62.2359   40.3679 R7         2 LUT      0.087068
    199 H201       71.8171   61.6675   41.4682 R7         2 LUT      0.087068
    200 H193       67.5749   60.8495   44.6852 R4         2 LUT      0.089716
    201 H192       69.0111   60.6744   43.8269 R4         2 LUT      0.089716
    202 H191       68.9919   59.9108   45.1382 R4         2 LUT      0.089716
    203 H183       64.8827   64.2849   47.6800 R1         2 LUT      0.094572
    204 H182       66.7188   64.8740   47.8614 R1         2 LUT      0.094572
    205 H181       66.0612   63.4199   46.8841 R1         2 LUT      0.094572
    206 H173       69.3208   60.7725   50.4509 T4         2 LUT      0.093752
    207 H172       68.3014   59.6046   51.4586 T4         2 LUT      0.093752
    208 H171       68.1820   59.6544   49.6074 T4         2 LUT      0.093752
    209 H163       66.1363   60.7349   52.1516 T4         2 LUT      0.093752
    210 H162       65.1349   61.4236   51.0337 T4         2 LUT      0.093752
    211 H161       65.5487   59.7580   50.7098 T4         2 LUT      0.093752
    212 HO3        66.4058   65.3394   52.4785 Q1         2 LUT      0.300121
    213 H8         68.7130   63.2375   47.2029 U7         2 LUT      0.080784
    214 H7         67.5638   60.4385   47.5239 U6         2 LUT      0.042190
    215 H42        64.5334   63.3918   50.3055 U5         2 LUT      0.145166
    216 H41        65.6212   64.8434   50.0639 U5         2 LUT      0.145166
    217 H35        76.2568   65.1010   42.3388 T3         2 LUT      0.077919
    218 H34        76.8972   63.8359   39.5360 T2         2 LUT      0.073626
    219 H32        78.7046   64.4207   38.2359 T1         2 LUT      0.092510
    220 H31        80.7489   66.1578   39.5808 U9         2 LUT      0.070048
    221 H30        80.4051   64.7813   36.7293 U8         2 LUT      0.085442
    222 H3         65.6901   63.1050   52.2942 U3         2 LUT     -0.031596
    223 H28        82.0425   65.0402   34.9700 U7         2 LUT      0.084728
    224 H27        84.6365   66.5480   35.4243 U6         2 LUT      0.087291
    225 H26        83.7102   64.1527   33.8368 Q6         2 LUT      0.075325
    226 H24        85.0896   66.0581   30.6960 Q5         2 LUT      0.094482
    227 H23        87.3353   65.3876   32.1322 U3         2 LUT     -0.024869
    228 H22        67.8288   62.2506   52.2835 U2         2 LUT      0.127376
    229 H21        68.3271   63.1165   50.7685 U2         2 LUT      0.127376
    230 H15        74.9181   63.3236   40.3124 T3         2 LUT      0.093200
    231 H14        74.2880   64.3622   43.2359 T2         2 LUT      0.068865
    232 H12        72.3341   64.0763   44.3750 T1         2 LUT      0.095507
    233 H11        70.5026   62.1025   43.0885 U9         2 LUT      0.068930
    234 H10        70.1909   63.7287   45.6748 U8         2 LUT      0.083911
    235 H1         86.5510   63.6185   30.2244 Q1         2 LUT      0.297311
@<TRIPOS>BOND
    1     6     1 1
    2     7     2 1
    3     8     3 1
    4     9     4 1
    5    11     4 1
    6    12     6 1
    7    13     9 1
    8    16     9 1
    9    25     5 1
   10    25    16 1
   11    26    10 1
   12    26    17 1
   13    27    18 1
   14    28    14 1
   15    28    19 1
   16    29    12 1
   17    30    13 1
   18    31    24 1
   19    32     1 1
   20    32    25 1
   21    33    21 1
   22    33    26 1
   23    34    22 1
   24    34    27 1
   25    35    23 1
   26    35    28 1
   27    36    12 1
   28    36    24 1
   29    37    13 1
   30    37    15 1
   31    38    31 1
   32    39    20 1
   33    39    32 1
   34    40     2 1
   35    40    33 1
   36    41     3 1
   37    41    34 1
   38    42     4 1
   39    42    35 1
   40    43    38 1
   41    44     5 1
   42    44    17 1
   43    44    39 1
   44    45    10 1
   45    45    18 1
   46    45    40 1
   47    46    19 1
   48    46    41 1
   49    47    14 1
   50    47    16 1
   51    47    42 1
   52    48    38 1
   53    49    48 1
   54    50    49 1
   55    51    50 1
   56    52    51 1
   57    53    51 1
   58    54    53 1
   59    55    54 1
   60    56    55 1
   61    57    56 1
   62    58    56 1
   63    59    58 1
   64    60    59 1
   65    61    60 1
   66    62    61 1
   67    63    61 1
   68    64    27 1
   69    64    46 1
   70    65     5 1
   71    65    10 1
   72    65    64 1
   73    65    14 1
   74    66    23 1
   75    67    23 1
   76    68    23 1
   77    69    22 1
   78    70    22 1
   79    71    22 1
   80    72    21 1
   81    73    21 1
   82    74    21 1
   83    75    20 1
   84    76    20 1
   85    77    20 1
   86    78    15 1
   87    79    15 1
   88    80    15 1
   89    81     8 1
   90    82     8 1
   91    83     8 1
   92    84     7 1
   93    85     7 1
   94    86     6 1
   95    87     6 1
   96    88     3 1
   97    89     3 1
   98    90     1 1
   99    91     1 1
  100    92    63 1
  101    93    63 1
  102    94    63 1
  103    95    62 1
  104    96    62 1
  105    97    62 1
  106    98    60 1
  107    99    60 1
  108   100    59 1
  109   101    59 1
  110   102    58 1
  111   103    58 1
  112   104    57 1
  113   105    57 1
  114   106    57 1
  115   107    55 1
  116   108    55 1
  117   109    54 1
  118   110    54 1
  119   111    53 1
  120   112    53 1
  121   113    19 1
  122   114    18 1
  123   115    17 1
  124   116     9 1
  125   117     2 1
  126   118    52 1
  127   119    52 1
  128   120    52 1
  129   121    51 1
  130   122    50 1
  131   123    50 1
  132   124    49 1
  133   125    49 1
  134   126    48 1
  135   127    48 1
  136   128    43 1
  137   129    43 1
  138   130    43 1
  139   131    39 1
  140   132    32 1
  141   133    31 1
  142   134    61 1
  143   135    56 1
  144   136    24 1
  145   137    24 1
  146   139   138 1
  147   140   139 1
  148   141   140 1
  149   142   140 1
  150   143   142 1
  151   144   138 1
  152   144   143 1
  153   145   144 1
  154   146   145 1
  155   147   146 1
  156   148   147 1
  157   149   148 1
  158   150   149 1
  159   151   150 1
  160   152   151 1
  161   153   152 1
  162   154   138 1
  163   155   138 1
  164   156   143 1
  165   157   147 1
  166   158   151 1
  167   160   159 1
  168   161   160 1
  169   162   161 1
  170   163   161 1
  171   164   163 1
  172   165   159 1
  173   165   164 1
  174   166   165 1
  175   167   166 1
  176   168   167 1
  177   169   168 1
  178   170   169 1
  179   171   170 1
  180   172   171 1
  181   173   172 1
  182   174   153 1
  183   174   173 1
  184   175   159 1
  185   176   159 1
  186   177   164 1
  187   178   168 1
  188   179   172 1
  189   180   179 1
  190   181   179 1
  191   182   179 1
  192   183   178 1
  193   184   178 1
  194   185   178 1
  195   186   177 1
  196   187   177 1
  197   188   177 1
  198   189   176 1
  199   190   176 1
  200   191   176 1
  201   192   175 1
  202   193   175 1
  203   194   175 1
  204   195   160 1
  205   196   160 1
  206   197   158 1
  207   198   158 1
  208   199   158 1
  209   200   157 1
  210   201   157 1
  211   202   157 1
  212   203   156 1
  213   204   156 1
  214   205   156 1
  215   206   155 1
  216   207   155 1
  217   208   155 1
  218   209   154 1
  219   210   154 1
  220   211   154 1
  221   212   141 1
  222   213   146 1
  223   214   145 1
  224   215   142 1
  225   216   142 1
  226   217   174 1
  227   218   173 1
  228   219   171 1
  229   220   170 1
  230   221   169 1
  231   222   140 1
  232   223   167 1
  233   224   166 1
  234   225   165 1
  235   226   163 1
  236   227   161 1
  237   228   139 1
  238   229   139 1
  239   230   153 1
  240   231   152 1
  241   232   150 1
  242   233   149 1
  243   234   148 1
  244   235   162 1
  245   65    153 1
  246   65    174 1
@<TRIPOS>SUBSTRUCTURE
      1 CLA               1 ****               0 ****  **** 
      2 LUT             138 ****               0 ****  **** 
