@<TRIPOS>MOLECULE
Cpptraj generated mol2 file.
  235   246     2     0     0
SMALL
USER_CHARGES


@<TRIPOS>ATOM
      1 CAA        79.4047   59.3935   34.0064 a2         1 CLA     -0.055900
      2 CAB        79.3706   62.9153   43.2690 c8         1 CLA     -0.148500
      3 CAC        72.4259   58.9449   42.4239 a2         1 CLA     -0.012600
      4 CAD        75.3885   56.7491   35.2177 ck         1 CLA      0.398800
      5 NA         78.4760   59.7625   37.5051 ns         1 CLA     -0.225500
      6 CBA        80.6957   59.5953   33.1224 a2         1 CLA     -0.135000
      7 CBB        80.4914   63.3291   43.8803 c0         1 CLA     -0.395200
      8 CBC        72.6434   57.5134   42.6717 a3         1 CLA     -0.037700
      9 CBD        76.8359   57.3426   34.8928 a1         1 CLA     -0.053900
     10 NB         78.3491   61.1591   40.1028 nm         1 CLA     -0.295700
     11 OBD        74.7967   55.9287   34.5110 o2         1 CLA     -0.494600
     12 CGA        81.4718   58.3842   32.7824 c4         1 CLA      0.827000
     13 CGD        77.8881   56.2434   34.8367 c4         1 CLA      0.655300
     14 ND         75.7592   58.8164   38.0560 nm         1 CLA     -0.291600
     15 CED        78.9882   54.3594   35.7900 a3         1 CLA      0.005400
     16 CHA        77.1925   58.2445   36.1017 cs         1 CLA     -0.123800
     17 CHB        80.2917   61.1853   38.5027 aa         1 CLA     -0.291900
     18 CHC        76.9634   61.4302   42.1076 aa         1 CLA     -0.090400
     19 CHD        73.8758   58.6317   39.6195 aa         1 CLA     -0.052000
     20 CMA        81.9229   59.4228   36.7351 a3         1 CLA     -0.230700
     21 CMB        81.5528   62.9821   40.6656 a3         1 CLA     -0.180800
     22 CMC        74.5127   60.9196   44.0667 a3         1 CLA     -0.134000
     23 CMD        72.7731   56.5723   37.3761 a3         1 CLA     -0.141100
     24 C1         82.7429   56.5782   33.6660 a2         1 CLA      0.023000
     25 C1A        78.3020   59.0256   36.3768 ac         1 CLA     -0.015100
     26 C1B        79.6516   61.4927   39.7314 cr         1 CLA      0.054700
     27 C1C        75.8015   60.7124   41.7726 cn         1 CLA     -0.005600
     28 C1D        74.4892   58.3705   38.4003 ap         1 CLA     -0.047300
     29 O1A        81.6447   57.9225   31.6300 o2         1 CLA     -0.610800
     30 O1D        78.6126   56.1355   33.8206 o2         1 CLA     -0.558200
     31 C2         83.1864   55.9823   34.9471 c8         1 CLA     -0.325100
     32 C2A        79.6109   58.9832   35.5039 a1         1 CLA      0.098600
     33 C2B        80.2082   62.2821   40.7986 cb         1 CLA      0.088500
     34 C2C        74.6097   60.4787   42.6837 cb         1 CLA      0.053700
     35 C2D        74.0067   57.4085   37.4002 cb         1 CLA      0.058900
     36 O2A        81.8352   57.6992   33.9024 o1         1 CLA     -0.437200
     37 O2D        78.0594   55.4741   35.9413 o1         1 CLA     -0.357600
     38 C3         83.8330   54.8353   35.1427 c5         1 CLA      0.031200
     39 C3A        80.5499   60.0237   36.2810 a1         1 CLA      0.166800
     40 C3B        79.3363   62.3248   41.8909 cb         1 CLA      0.035000
     41 C3C        73.7810   59.5679   41.9543 cb         1 CLA     -0.089900
     42 C3D        75.0120   57.3538   36.4913 cb         1 CLA     -0.035900
     43 C4         83.1766   53.4997   35.5504 a3         1 CLA     -0.053300
     44 C4A        79.6856   60.3864   37.5228 ac         1 CLA      0.001800
     45 C4B        78.1584   61.5931   41.3977 cn         1 CLA     -0.020900
     46 C4C        74.3934   59.3509   40.6381 cr         1 CLA     -0.044400
     47 C4D        76.0557   58.1852   36.9480 c6         1 CLA     -0.046000
     48 C5         85.3917   54.8708   35.1586 a2         1 CLA     -0.070400
     49 C6         86.1040   56.1188   35.7171 a2         1 CLA      0.043900
     50 C7         86.3327   55.9939   37.2932 a2         1 CLA     -0.150000
     51 C8         87.0584   57.1511   38.0163 a1         1 CLA      0.064200
     52 C9         88.4400   57.3980   37.3908 a3         1 CLA     -0.259300
     53 C10        87.1088   57.1238   39.6149 a2         1 CLA     -0.071900
     54 C11        87.3713   58.3998   40.3243 a2         1 CLA      0.014500
     55 C12        87.0102   58.3029   41.7965 a2         1 CLA     -0.112100
     56 C13        87.0824   59.5929   42.7059 a1         1 CLA      0.089200
     57 C14        88.4178   60.3543   42.4871 a3         1 CLA     -0.239100
     58 C15        86.7463   59.3548   44.1428 a2         1 CLA     -0.102200
     59 C16        85.3905   58.6289   44.3349 a2         1 CLA      0.023900
     60 C17        85.0186   58.2373   45.8773 a2         1 CLA     -0.105700
     61 C18        84.8962   59.4209   46.9354 a1         1 CLA      0.206800
     62 C19        83.9971   60.5967   46.5777 a3         1 CLA     -0.280100
     63 C20        84.4309   58.8924   48.3326 a3         1 CLA     -0.280100
     64 NC         75.6136   60.0171   40.5486 nx         1 CLA     -0.309200
     65 MG         77.0195   60.0831   38.9560 mg         1 CLA      0.895000
     66 HMD3       72.6578   55.9888   38.3006 dc         1 CLA      0.064300
     67 HMD2       71.9602   57.1691   37.1027 dc         1 CLA      0.064300
     68 HMD1       72.7996   55.8079   36.5938 dc         1 CLA      0.064300
     69 HMC3       74.2416   61.9775   44.1402 dc         1 CLA      0.052100
     70 HMC2       73.7985   60.3040   44.5864 dc         1 CLA      0.052100
     71 HMC1       75.4724   60.7116   44.4684 dc         1 CLA      0.052100
     72 HMB3       81.8018   63.7917   41.3912 dc         1 CLA      0.063600
     73 HMB2       82.3143   62.2436   40.6871 dc         1 CLA      0.063600
     74 HMB1       81.5523   63.3728   39.6048 dc         1 CLA      0.063600
     75 HMA3       81.8500   58.6231   37.5550 dc         1 CLA      0.058300
     76 HMA2       82.4356   59.0648   35.8666 dc         1 CLA      0.058300
     77 HMA1       82.6353   60.2433   37.0362 dc         1 CLA      0.058300
     78 HED3       78.5205   53.7559   35.0033 dc         1 CLA      0.079300
     79 HED2       80.0018   54.7387   35.6911 dc         1 CLA      0.079300
     80 HED1       79.0782   53.8973   36.7729 dc         1 CLA      0.079300
     81 HBC3       73.1401   57.2246   43.6101 dc         1 CLA      0.016300
     82 HBC2       71.7264   56.9363   42.6623 dc         1 CLA      0.016300
     83 HBC1       73.3024   57.1408   41.8698 dc         1 CLA      0.016300
     84 HBB2       80.4306   63.7935   44.8465 da         1 CLA      0.183000
     85 HBB1       81.5222   63.2258   43.4484 da         1 CLA      0.183000
     86 HBA2       80.5250   60.1189   32.2443 dc         1 CLA      0.029400
     87 HBA1       81.2465   60.4125   33.5810 dc         1 CLA      0.029400
     88 HAC2       71.8296   59.3836   43.2822 dc         1 CLA      0.029300
     89 HAC1       71.7890   58.9489   41.4569 dc         1 CLA      0.029300
     90 HAA2       78.9356   58.5826   33.4500 dc         1 CLA      0.028700
     91 HAA1       78.8174   60.2972   33.8987 dc         1 CLA      0.028700
     92 H203       83.3426   58.8998   48.3688 dc         1 CLA      0.065600
     93 H202       84.7477   57.8513   48.4177 dc         1 CLA      0.065600
     94 H201       84.6669   59.4807   49.1974 dc         1 CLA      0.065600
     95 H193       84.2545   61.0286   45.6079 dc         1 CLA      0.065600
     96 H192       82.8971   60.3845   46.6329 dc         1 CLA      0.065600
     97 H191       84.1938   61.3975   47.3013 dc         1 CLA      0.065600
     98 H172       84.1558   57.5392   45.8574 dc         1 CLA      0.027600
     99 H171       85.8607   57.6617   46.2005 dc         1 CLA      0.027600
    100 H162       84.6199   59.1351   43.7162 dc         1 CLA      0.002900
    101 H161       85.4806   57.6305   43.9187 dc         1 CLA      0.002900
    102 H152       87.5494   58.7201   44.5378 dc         1 CLA      0.029100
    103 H151       86.6765   60.3124   44.7380 dc         1 CLA      0.029100
    104 H143       89.2560   59.7112   42.8423 dc         1 CLA      0.063600
    105 H142       88.5612   60.6350   41.4335 dc         1 CLA      0.063600
    106 H141       88.3971   61.2823   43.0772 dc         1 CLA      0.063600
    107 H122       85.9707   58.0679   41.7146 dc         1 CLA      0.032500
    108 H121       87.4675   57.5047   42.3098 dc         1 CLA      0.032500
    109 H112       88.4086   58.7671   40.3021 dc         1 CLA      0.006600
    110 H111       86.8454   59.2128   39.8366 dc         1 CLA      0.006600
    111 H102       86.1266   56.7552   39.9190 dc         1 CLA      0.024100
    112 H101       87.8403   56.4350   40.0242 dc         1 CLA      0.024100
    113 HHD        72.9343   58.0309   39.6776 da         1 CLA      0.174300
    114 HHC        76.8193   61.7755   43.1378 da         1 CLA      0.136800
    115 HHB        81.3523   61.4398   38.2601 da         1 CLA      0.138300
    116 HBD        76.8047   57.9296   34.0324 dc         1 CLA      0.107700
    117 HAB        78.4391   63.0171   43.7979 da         1 CLA      0.155200
    118 H93        88.4693   58.3369   36.8738 dc         1 CLA      0.069500
    119 H92        89.2219   57.3012   38.1214 dc         1 CLA      0.069500
    120 H91        88.6860   56.5680   36.7456 dc         1 CLA      0.069500
    121 H8         86.4584   58.0266   37.7988 dc         1 CLA      0.029300
    122 H72        85.3470   55.8849   37.6851 dc         1 CLA      0.044400
    123 H71        86.9765   55.1764   37.5671 dc         1 CLA      0.044400
    124 H62        87.0008   56.0805   35.0858 dc         1 CLA      0.015600
    125 H61        85.5444   56.9725   35.5263 dc         1 CLA      0.015600
    126 H52        85.7293   54.0072   35.6794 dc         1 CLA      0.033200
    127 H51        85.6789   54.8434   34.1247 dc         1 CLA      0.033200
    128 H43        83.0852   52.8750   34.6620 dc         1 CLA      0.037000
    129 H42        83.6736   52.9449   36.3721 dc         1 CLA      0.037000
    130 H41        82.1211   53.6389   35.9082 dc         1 CLA      0.037000
    131 H3A        80.6389   60.9494   35.6817 dc         1 CLA      0.041100
    132 H2A        80.0452   57.9676   35.5320 dc         1 CLA      0.083100
    133 H2         82.8379   56.4587   35.9100 da         1 CLA      0.180900
    134 H18        85.8568   59.8234   47.1100 dc         1 CLA     -0.003900
    135 H13        86.2783   60.2431   42.3509 dc         1 CLA      0.019700
    136 H12        82.2992   55.7724   33.0578 dc         1 CLA      0.120400
    137 H11        83.6228   56.9557   33.1157 dc         1 CLA      0.120400
    138 C1         68.7309   62.2381   49.5972 Z1         2 LUT      0.509236
    139 C2         67.3361   62.0543   50.1324 Z2         2 LUT     -0.434695
    140 C3         66.5217   63.3012   50.4968 Z3         2 LUT      0.437453
    141 O3         66.6800   63.5343   51.9518 S1         2 LUT     -0.547129
    142 C4         67.0664   64.5821   49.8352 Z4         2 LUT     -0.468603
    143 C5         67.9630   64.4177   48.6452 Z5         2 LUT      0.279246
    144 C6         68.7464   63.3536   48.5047 Z6         2 LUT     -0.305473
    145 C7         69.3067   62.8806   47.1908 Z7         2 LUT      0.069402
    146 C8         70.1870   63.5891   46.4824 Z8         2 LUT     -0.191631
    147 C9         71.0138   63.1616   45.3194 Z9         2 LUT      0.196698
    148 C10        71.9353   64.0268   44.7505 Y1         2 LUT     -0.208611
    149 C11        72.7795   63.9725   43.5831 Y2         2 LUT      0.030784
    150 C12        73.8158   64.8259   43.3288 Y3         2 LUT     -0.220316
    151 C13        74.7302   64.6764   42.2272 Y4         2 LUT      0.215937
    152 C14        76.0094   65.1689   42.2524 Y5         2 LUT     -0.185793
    153 C15        77.0486   65.0514   41.2788 Y6         2 LUT     -0.057835
    154 C16        69.2549   60.7331   49.2851 Y7         2 LUT     -0.405615
    155 C17        69.6923   62.7102   50.7283 Y7         2 LUT     -0.405615
    156 C18        67.5096   65.3510   47.4791 Y9         2 LUT     -0.369639
    157 C19        70.8858   61.7738   44.7141 W1         2 LUT     -0.333362
    158 C20        74.2279   64.0118   41.0050 W2         2 LUT     -0.323439
    159 C21        88.4395   66.2700   35.0565 Z1         2 LUT      0.406104
    160 C22        89.0856   65.6649   33.8268 Z2         2 LUT     -0.404965
    161 C23        89.1779   66.5067   32.6160 Z3         2 LUT      0.391255
    162 O23        89.6274   65.7102   31.5193 S1         2 LUT     -0.528210
    163 C24        87.8693   67.2972   32.4473 W6         2 LUT     -0.258361
    164 C25        86.9033   67.4078   33.3736 Z5         2 LUT      0.133546
    165 C26        86.9432   66.6589   34.7528 W8         2 LUT     -0.147008
    166 C27        86.2842   67.4598   35.8584 Z7         2 LUT      0.023843
    167 C28        85.1738   67.0276   36.5143 Z8         2 LUT     -0.216987
    168 C29        84.6436   67.1772   37.8868 Z9         2 LUT      0.206524
    169 C30        83.4550   66.6011   38.1919 Y1         2 LUT     -0.215556
    170 C31        82.6217   66.8502   39.3643 Y2         2 LUT      0.025142
    171 C32        81.3930   66.2406   39.4105 Y3         2 LUT     -0.212209
    172 C33        80.5501   66.3894   40.5451 Y4         2 LUT      0.240937
    173 C34        79.4073   65.7023   40.4504 Y5         2 LUT     -0.218862
    174 C35        78.2687   65.6549   41.4653 Y6         2 LUT     -0.023547
    175 C36        89.3501   67.4778   35.4255 Y7         2 LUT     -0.393485
    176 C37        88.4407   65.2293   36.2215 Y7         2 LUT     -0.393485
    177 C38        85.5323   67.9776   33.0459 Y9         2 LUT     -0.387526
    178 C39        85.1706   68.2206   38.8721 W1         2 LUT     -0.322618
    179 C40        81.0369   67.3564   41.6722 W2         2 LUT     -0.358472
    180 H403       80.8900   68.3623   41.3196 R7         2 LUT      0.097720
    181 H402       80.4779   67.2194   42.5582 R7         2 LUT      0.097720
    182 H401       82.0709   67.0736   42.0193 R7         2 LUT      0.097720
    183 H393       85.8125   67.7828   39.5345 R4         2 LUT      0.082505
    184 H392       85.7902   68.9454   38.3727 R4         2 LUT      0.082505
    185 H391       84.4093   68.8274   39.3538 R4         2 LUT      0.082505
    186 H383       84.7962   67.1353   32.9908 R1         2 LUT      0.104030
    187 H382       85.1896   68.6814   33.8301 R1         2 LUT      0.104030
    188 H381       85.5256   68.5244   32.0663 R1         2 LUT      0.104030
    189 H373       87.9637   64.3400   35.9300 T4         2 LUT      0.089537
    190 H372       89.4598   64.8215   36.4645 T4         2 LUT      0.089537
    191 H371       87.8867   65.5854   37.1464 T4         2 LUT      0.089537
    192 H363       88.9515   68.1405   36.1553 T4         2 LUT      0.089537
    193 H362       90.3653   67.1154   35.8299 T4         2 LUT      0.089537
    194 H361       89.6030   68.1497   34.5677 T4         2 LUT      0.089537
    195 H222       90.0829   65.3523   34.0257 U2         2 LUT      0.127376
    196 H221       88.4572   64.8040   33.6317 U2         2 LUT      0.127376
    197 H203       73.4038   64.5172   40.5491 R7         2 LUT      0.087068
    198 H202       74.9004   63.9972   40.1621 R7         2 LUT      0.087068
    199 H201       73.9540   62.9883   41.1897 R7         2 LUT      0.087068
    200 H193       69.9634   61.3205   44.7827 R4         2 LUT      0.089716
    201 H192       70.9093   61.8445   43.5971 R4         2 LUT      0.089716
    202 H191       71.6598   61.0794   45.0068 R4         2 LUT      0.089716
    203 H183       68.3729   65.8489   47.0748 R1         2 LUT      0.094572
    204 H182       67.1073   64.7182   46.6352 R1         2 LUT      0.094572
    205 H181       66.9608   66.2640   47.7277 R1         2 LUT      0.094572
    206 H173       70.6814   62.4361   50.5446 T4         2 LUT      0.093752
    207 H172       69.6897   63.7948   50.9749 T4         2 LUT      0.093752
    208 H171       69.4376   62.1397   51.6255 T4         2 LUT      0.093752
    209 H163       70.2404   60.6511   48.8742 T4         2 LUT      0.093752
    210 H162       69.2772   60.0887   50.1543 T4         2 LUT      0.093752
    211 H161       68.5368   60.1857   48.6283 T4         2 LUT      0.093752
    212 HO3        65.9004   63.1764   52.3801 Q1         2 LUT      0.300121
    213 H8         70.4498   64.5875   46.8733 U7         2 LUT      0.080784
    214 H7         69.1491   61.8301   46.9255 U6         2 LUT      0.042190
    215 H42        66.2650   65.3387   49.6239 U5         2 LUT      0.145166
    216 H41        67.6170   65.0857   50.5806 U5         2 LUT      0.145166
    217 H35        78.4247   66.3014   42.3581 T3         2 LUT      0.077919
    218 H34        79.2311   65.0138   39.6381 T2         2 LUT      0.073626
    219 H32        81.0958   65.6323   38.4914 T1         2 LUT      0.092510
    220 H31        83.0834   67.3924   40.1476 U9         2 LUT      0.070048
    221 H30        83.0074   66.0088   37.4178 U8         2 LUT      0.085442
    222 H3         65.4726   63.2316   50.3476 U3         2 LUT     -0.031596
    223 H28        84.5901   66.2624   35.9688 U7         2 LUT      0.084728
    224 H27        86.9134   68.1435   36.4537 U6         2 LUT      0.087291
    225 H26        86.3985   65.7195   34.8094 Q6         2 LUT      0.075325
    226 H24        87.6037   67.7318   31.4215 Q5         2 LUT      0.094482
    227 H23        90.0212   67.2527   32.8731 U3         2 LUT     -0.024869
    228 H22        66.8254   61.5497   49.3369 U2         2 LUT      0.127376
    229 H21        67.3620   61.3873   50.9442 U2         2 LUT      0.127376
    230 H15        76.9219   64.5413   40.3395 T3         2 LUT      0.093200
    231 H14        76.3043   65.8855   42.9921 T2         2 LUT      0.068865
    232 H12        74.0599   65.5544   44.0562 T1         2 LUT      0.095507
    233 H11        72.6339   63.2093   42.8537 U9         2 LUT      0.068930
    234 H10        72.1454   64.9489   45.3496 U8         2 LUT      0.083911
    235 H1         89.7023   66.2664   30.7235 Q1         2 LUT      0.297311
@<TRIPOS>BOND
    1     6     1 1
    2     7     2 1
    3     8     3 1
    4     9     4 1
    5    11     4 1
    6    12     6 1
    7    13     9 1
    8    16     9 1
    9    25     5 1
   10    25    16 1
   11    26    10 1
   12    26    17 1
   13    27    18 1
   14    28    14 1
   15    28    19 1
   16    29    12 1
   17    30    13 1
   18    31    24 1
   19    32     1 1
   20    32    25 1
   21    33    21 1
   22    33    26 1
   23    34    22 1
   24    34    27 1
   25    35    23 1
   26    35    28 1
   27    36    12 1
   28    36    24 1
   29    37    13 1
   30    37    15 1
   31    38    31 1
   32    39    20 1
   33    39    32 1
   34    40     2 1
   35    40    33 1
   36    41     3 1
   37    41    34 1
   38    42     4 1
   39    42    35 1
   40    43    38 1
   41    44     5 1
   42    44    17 1
   43    44    39 1
   44    45    10 1
   45    45    18 1
   46    45    40 1
   47    46    19 1
   48    46    41 1
   49    47    14 1
   50    47    16 1
   51    47    42 1
   52    48    38 1
   53    49    48 1
   54    50    49 1
   55    51    50 1
   56    52    51 1
   57    53    51 1
   58    54    53 1
   59    55    54 1
   60    56    55 1
   61    57    56 1
   62    58    56 1
   63    59    58 1
   64    60    59 1
   65    61    60 1
   66    62    61 1
   67    63    61 1
   68    64    27 1
   69    64    46 1
   70    65     5 1
   71    65    10 1
   72    65    64 1
   73    65    14 1
   74    66    23 1
   75    67    23 1
   76    68    23 1
   77    69    22 1
   78    70    22 1
   79    71    22 1
   80    72    21 1
   81    73    21 1
   82    74    21 1
   83    75    20 1
   84    76    20 1
   85    77    20 1
   86    78    15 1
   87    79    15 1
   88    80    15 1
   89    81     8 1
   90    82     8 1
   91    83     8 1
   92    84     7 1
   93    85     7 1
   94    86     6 1
   95    87     6 1
   96    88     3 1
   97    89     3 1
   98    90     1 1
   99    91     1 1
  100    92    63 1
  101    93    63 1
  102    94    63 1
  103    95    62 1
  104    96    62 1
  105    97    62 1
  106    98    60 1
  107    99    60 1
  108   100    59 1
  109   101    59 1
  110   102    58 1
  111   103    58 1
  112   104    57 1
  113   105    57 1
  114   106    57 1
  115   107    55 1
  116   108    55 1
  117   109    54 1
  118   110    54 1
  119   111    53 1
  120   112    53 1
  121   113    19 1
  122   114    18 1
  123   115    17 1
  124   116     9 1
  125   117     2 1
  126   118    52 1
  127   119    52 1
  128   120    52 1
  129   121    51 1
  130   122    50 1
  131   123    50 1
  132   124    49 1
  133   125    49 1
  134   126    48 1
  135   127    48 1
  136   128    43 1
  137   129    43 1
  138   130    43 1
  139   131    39 1
  140   132    32 1
  141   133    31 1
  142   134    61 1
  143   135    56 1
  144   136    24 1
  145   137    24 1
  146   139   138 1
  147   140   139 1
  148   141   140 1
  149   142   140 1
  150   143   142 1
  151   144   138 1
  152   144   143 1
  153   145   144 1
  154   146   145 1
  155   147   146 1
  156   148   147 1
  157   149   148 1
  158   150   149 1
  159   151   150 1
  160   152   151 1
  161   153   152 1
  162   154   138 1
  163   155   138 1
  164   156   143 1
  165   157   147 1
  166   158   151 1
  167   160   159 1
  168   161   160 1
  169   162   161 1
  170   163   161 1
  171   164   163 1
  172   165   159 1
  173   165   164 1
  174   166   165 1
  175   167   166 1
  176   168   167 1
  177   169   168 1
  178   170   169 1
  179   171   170 1
  180   172   171 1
  181   173   172 1
  182   174   153 1
  183   174   173 1
  184   175   159 1
  185   176   159 1
  186   177   164 1
  187   178   168 1
  188   179   172 1
  189   180   179 1
  190   181   179 1
  191   182   179 1
  192   183   178 1
  193   184   178 1
  194   185   178 1
  195   186   177 1
  196   187   177 1
  197   188   177 1
  198   189   176 1
  199   190   176 1
  200   191   176 1
  201   192   175 1
  202   193   175 1
  203   194   175 1
  204   195   160 1
  205   196   160 1
  206   197   158 1
  207   198   158 1
  208   199   158 1
  209   200   157 1
  210   201   157 1
  211   202   157 1
  212   203   156 1
  213   204   156 1
  214   205   156 1
  215   206   155 1
  216   207   155 1
  217   208   155 1
  218   209   154 1
  219   210   154 1
  220   211   154 1
  221   212   141 1
  222   213   146 1
  223   214   145 1
  224   215   142 1
  225   216   142 1
  226   217   174 1
  227   218   173 1
  228   219   171 1
  229   220   170 1
  230   221   169 1
  231   222   140 1
  232   223   167 1
  233   224   166 1
  234   225   165 1
  235   226   163 1
  236   227   161 1
  237   228   139 1
  238   229   139 1
  239   230   153 1
  240   231   152 1
  241   232   150 1
  242   233   149 1
  243   234   148 1
  244   235   162 1
  245   65    153 1
  246   65    174 1
@<TRIPOS>SUBSTRUCTURE
      1 CLA               1 ****               0 ****  **** 
      2 LUT             138 ****               0 ****  **** 
