@<TRIPOS>MOLECULE
Cpptraj generated mol2 file.
  235   246     2     0     0
SMALL
USER_CHARGES


@<TRIPOS>ATOM
      1 CAA        80.0409   58.5468   34.5731 a2         1 CLA     -0.055900
      2 CAB        79.5427   62.3087   43.5943 c8         1 CLA     -0.148500
      3 CAC        72.8429   57.8993   42.8802 a2         1 CLA     -0.012600
      4 CAD        76.0451   55.6560   35.6902 ck         1 CLA      0.398800
      5 NA         78.9406   58.9260   37.8703 ns         1 CLA     -0.225500
      6 CBA        81.2971   58.2353   33.7261 a2         1 CLA     -0.135000
      7 CBB        80.6120   62.2737   44.3814 c0         1 CLA     -0.395200
      8 CBC        72.9165   56.3332   42.9717 a3         1 CLA     -0.037700
      9 CBD        77.4896   56.2495   35.4085 a1         1 CLA     -0.053900
     10 NB         78.6797   60.3068   40.4780 nm         1 CLA     -0.295700
     11 OBD        75.4757   54.8875   34.8919 o2         1 CLA     -0.494600
     12 CGA        81.7605   56.8604   33.3629 c4         1 CLA      0.827000
     13 CGD        78.4775   55.1433   35.1161 c4         1 CLA      0.655300
     14 ND         76.2439   57.8710   38.4530 nm         1 CLA     -0.291600
     15 CED        79.4698   53.3315   36.1301 a3         1 CLA      0.005400
     16 CHA        77.7796   57.2373   36.5639 cs         1 CLA     -0.123800
     17 CHB        80.7307   60.1639   39.0955 aa         1 CLA     -0.291900
     18 CHC        77.2324   60.5236   42.4663 aa         1 CLA     -0.090400
     19 CHD        74.3010   57.5326   40.0685 aa         1 CLA     -0.052000
     20 CMA        82.3371   57.9975   37.4319 a3         1 CLA     -0.230700
     21 CMB        81.8413   62.0802   41.2999 a3         1 CLA     -0.180800
     22 CMC        74.9641   59.9349   44.5192 a3         1 CLA     -0.134000
     23 CMD        73.2018   55.5892   37.8255 a3         1 CLA     -0.141100
     24 C1         83.3267   55.1555   34.1999 a2         1 CLA      0.023000
     25 C1A        78.9335   58.0271   36.8472 ac         1 CLA     -0.015100
     26 C1B        79.9838   60.6706   40.1986 cr         1 CLA      0.054700
     27 C1C        76.0444   59.7745   42.1119 cn         1 CLA     -0.005600
     28 C1D        74.9893   57.2957   38.7965 ap         1 CLA     -0.047300
     29 O1A        81.6471   56.2939   32.3392 o2         1 CLA     -0.610800
     30 O1D        79.1353   55.0717   34.0983 o2         1 CLA     -0.558200
     31 C2         83.8875   54.8030   35.5871 c8         1 CLA     -0.325100
     32 C2A        80.1802   58.0048   36.0057 a1         1 CLA      0.098600
     33 C2B        80.4674   61.4881   41.2372 cb         1 CLA      0.088500
     34 C2C        75.0201   59.4128   43.0855 cb         1 CLA      0.053700
     35 C2D        74.4654   56.3465   37.8165 cb         1 CLA      0.058900
     36 O2A        82.5797   56.4065   34.3504 o1         1 CLA     -0.437200
     37 O2D        78.2924   54.1687   36.0878 o1         1 CLA     -0.357600
     38 C3         85.1270   54.6933   35.9903 c5         1 CLA      0.031200
     39 C3A        81.1123   58.8007   36.8948 a1         1 CLA      0.166800
     40 C3B        79.5103   61.6473   42.1981 cb         1 CLA      0.035000
     41 C3C        74.1143   58.6178   42.3537 cb         1 CLA     -0.089900
     42 C3D        75.6082   56.3380   36.9056 cb         1 CLA     -0.035900
     43 C4         85.8230   53.3903   35.6184 a3         1 CLA     -0.053300
     44 C4A        80.2311   59.3537   37.9958 ac         1 CLA      0.001800
     45 C4B        78.3699   60.8016   41.7406 cn         1 CLA     -0.020900
     46 C4C        74.7529   58.4267   41.0363 cr         1 CLA     -0.044400
     47 C4D        76.6171   57.2477   37.3185 c6         1 CLA     -0.046000
     48 C5         86.0106   55.8245   36.3201 a2         1 CLA     -0.070400
     49 C6         86.9627   55.7177   37.5156 a2         1 CLA      0.043900
     50 C7         87.6937   57.1043   37.7134 a2         1 CLA     -0.150000
     51 C8         88.8936   57.0202   38.7109 a1         1 CLA      0.064200
     52 C9         90.0884   56.2336   38.1443 a3         1 CLA     -0.259300
     53 C10        88.4961   56.5754   40.1408 a2         1 CLA     -0.071900
     54 C11        88.0653   57.5794   41.1209 a2         1 CLA      0.014500
     55 C12        88.0236   57.0990   42.5824 a2         1 CLA     -0.112100
     56 C13        88.0600   58.1884   43.6654 a1         1 CLA      0.089200
     57 C14        88.5452   57.6920   44.9671 a3         1 CLA     -0.239100
     58 C15        86.6242   58.8285   43.8759 a2         1 CLA     -0.102200
     59 C16        86.5917   60.0658   44.8044 a2         1 CLA      0.023900
     60 C17        85.1944   60.5538   45.2595 a2         1 CLA     -0.105700
     61 C18        84.3943   59.4331   46.0822 a1         1 CLA      0.206800
     62 C19        85.0175   58.8633   47.3306 a3         1 CLA     -0.280100
     63 C20        82.9266   59.8849   46.3397 a3         1 CLA     -0.280100
     64 NC         75.8819   59.1391   40.9376 nx         1 CLA     -0.309200
     65 MG         77.3429   59.2152   39.3615 mg         1 CLA      0.895000
     66 HMD3       72.5175   56.3622   37.5072 dc         1 CLA      0.064300
     67 HMD2       73.2164   54.8065   37.0517 dc         1 CLA      0.064300
     68 HMD1       72.9628   55.1590   38.7370 dc         1 CLA      0.064300
     69 HMC3       74.3745   59.3597   45.1879 dc         1 CLA      0.052100
     70 HMC2       75.9792   59.6764   44.8534 dc         1 CLA      0.052100
     71 HMC1       74.5877   60.9261   44.4318 dc         1 CLA      0.052100
     72 HMB3       82.6247   61.4541   41.8104 dc         1 CLA      0.063600
     73 HMB2       82.1846   62.5525   40.4158 dc         1 CLA      0.063600
     74 HMB1       81.7373   62.9666   41.8856 dc         1 CLA      0.063600
     75 HMA3       83.2116   58.6456   37.6005 dc         1 CLA      0.058300
     76 HMA2       82.1656   57.5559   38.3831 dc         1 CLA      0.058300
     77 HMA1       82.6831   57.3037   36.6623 dc         1 CLA      0.058300
     78 HED3       79.2913   52.4495   36.7873 dc         1 CLA      0.079300
     79 HED2       79.7594   52.8967   35.1353 dc         1 CLA      0.079300
     80 HED1       80.2993   53.9535   36.4347 dc         1 CLA      0.079300
     81 HBC3       72.1200   56.0311   43.7272 dc         1 CLA      0.016300
     82 HBC2       72.7947   55.8614   42.0733 dc         1 CLA      0.016300
     83 HBC1       73.8536   56.0757   43.5184 dc         1 CLA      0.016300
     84 HBB2       80.4831   62.5261   45.4384 da         1 CLA      0.183000
     85 HBB1       81.5421   61.8739   44.0988 da         1 CLA      0.183000
     86 HBA2       81.1053   58.6535   32.7632 dc         1 CLA      0.029400
     87 HBA1       82.1653   58.6849   34.0930 dc         1 CLA      0.029400
     88 HAC2       72.6077   58.2963   43.9348 dc         1 CLA      0.029300
     89 HAC1       72.0293   58.1395   42.2826 dc         1 CLA      0.029300
     90 HAA2       79.1911   58.2058   34.0045 dc         1 CLA      0.028700
     91 HAA1       79.9571   59.6162   34.5787 dc         1 CLA      0.028700
     92 H203       82.8406   60.8352   46.8686 dc         1 CLA      0.065600
     93 H202       82.4414   60.0767   45.3530 dc         1 CLA      0.065600
     94 H201       82.2759   59.1918   46.8916 dc         1 CLA      0.065600
     95 H193       85.1177   59.7664   47.9123 dc         1 CLA      0.065600
     96 H192       84.3562   58.1835   47.8825 dc         1 CLA      0.065600
     97 H191       86.0033   58.3614   47.2027 dc         1 CLA      0.065600
     98 H172       85.2849   61.4425   45.8519 dc         1 CLA      0.027600
     99 H171       84.6865   60.8126   44.3717 dc         1 CLA      0.027600
    100 H162       87.0465   59.7740   45.7088 dc         1 CLA      0.002900
    101 H161       87.1653   60.8734   44.3411 dc         1 CLA      0.002900
    102 H152       86.1083   58.9606   42.8840 dc         1 CLA      0.029100
    103 H151       86.1897   57.9591   44.3610 dc         1 CLA      0.029100
    104 H143       87.9370   57.0268   45.4784 dc         1 CLA      0.063600
    105 H142       89.3595   56.9942   44.8319 dc         1 CLA      0.063600
    106 H141       88.7998   58.4746   45.7032 dc         1 CLA      0.063600
    107 H122       87.1443   56.3631   42.6619 dc         1 CLA      0.032500
    108 H121       88.9280   56.4555   42.7650 dc         1 CLA      0.032500
    109 H112       88.7688   58.4146   41.1016 dc         1 CLA      0.006600
    110 H111       87.0988   57.9135   40.8358 dc         1 CLA      0.006600
    111 H102       87.8553   55.7484   40.1692 dc         1 CLA      0.024100
    112 H101       89.5260   56.4227   40.6384 dc         1 CLA      0.024100
    113 HHD        73.3804   57.0160   40.2836 da         1 CLA      0.174300
    114 HHC        77.1277   60.9843   43.4584 da         1 CLA      0.136800
    115 HHB        81.7960   60.3846   39.1542 da         1 CLA      0.138300
    116 HBD        77.4494   56.7491   34.4607 dc         1 CLA      0.107700
    117 HAB        78.6025   62.6250   44.0665 da         1 CLA      0.155200
    118 H93        90.9894   56.3300   38.6928 dc         1 CLA      0.069500
    119 H92        89.7466   55.2054   38.0898 dc         1 CLA      0.069500
    120 H91        90.2714   56.7129   37.2215 dc         1 CLA      0.069500
    121 H8         89.3222   58.0406   38.7954 dc         1 CLA      0.029300
    122 H72        88.0024   57.5259   36.7532 dc         1 CLA      0.044400
    123 H71        87.0987   57.8377   38.2245 dc         1 CLA      0.044400
    124 H62        86.2942   55.5419   38.3445 dc         1 CLA      0.015600
    125 H61        87.6911   54.8355   37.4172 dc         1 CLA      0.015600
    126 H52        86.5823   56.1596   35.5010 dc         1 CLA      0.033200
    127 H51        85.3338   56.6001   36.6145 dc         1 CLA      0.033200
    128 H43        85.1342   52.5728   35.3545 dc         1 CLA      0.037000
    129 H42        86.3659   53.6979   34.7857 dc         1 CLA      0.037000
    130 H41        86.4830   52.9691   36.4186 dc         1 CLA      0.037000
    131 H3A        81.5695   59.5934   36.3011 dc         1 CLA      0.041100
    132 H2A        80.4347   56.9178   35.9854 dc         1 CLA      0.083100
    133 H2         83.1115   54.7180   36.4019 da         1 CLA      0.180900
    134 H18        84.2826   58.5661   45.4064 dc         1 CLA     -0.003900
    135 H13        88.7201   58.9375   43.2841 dc         1 CLA      0.019700
    136 H12        82.5319   54.3890   34.0349 dc         1 CLA      0.120400
    137 H11        84.0318   55.2836   33.3438 dc         1 CLA      0.120400
    138 C1         69.6743   61.4108   49.7670 Z1         2 LUT      0.509236
    139 C2         68.2814   61.4195   50.5208 Z2         2 LUT     -0.434695
    140 C3         67.6556   62.8102   50.9724 Z3         2 LUT      0.437453
    141 O3         68.4792   63.4560   51.9059 S1         2 LUT     -0.547129
    142 C4         67.7213   63.7301   49.7212 Z4         2 LUT     -0.468603
    143 C5         68.6489   63.4150   48.5936 Z5         2 LUT      0.279246
    144 C6         69.4326   62.2994   48.5718 Z6         2 LUT     -0.305473
    145 C7         69.9811   61.8493   47.2213 Z7         2 LUT      0.069402
    146 C8         70.9409   62.4427   46.4447 Z8         2 LUT     -0.191631
    147 C9         71.4047   62.1967   45.0267 Z9         2 LUT      0.196698
    148 C10        72.4752   62.9206   44.4915 Y1         2 LUT     -0.208611
    149 C11        73.0388   62.7494   43.1820 Y2         2 LUT      0.030784
    150 C12        74.1544   63.4894   42.9426 Y3         2 LUT     -0.220316
    151 C13        75.0716   63.2835   41.8032 Y4         2 LUT      0.215937
    152 C14        76.3511   63.9614   41.7608 Y5         2 LUT     -0.185793
    153 C15        77.4321   63.7840   40.8282 Y6         2 LUT     -0.057835
    154 C16        70.0040   59.8895   49.4873 Y7         2 LUT     -0.405615
    155 C17        70.7583   62.1599   50.6156 Y7         2 LUT     -0.405615
    156 C18        68.2301   64.3456   47.4673 Y9         2 LUT     -0.369639
    157 C19        70.6979   61.1279   44.2603 W1         2 LUT     -0.333362
    158 C20        74.4742   62.5919   40.5302 W2         2 LUT     -0.323439
    159 C21        88.6403   65.4913   34.5461 Z1         2 LUT      0.406104
    160 C22        89.3155   64.9178   33.2649 Z2         2 LUT     -0.404965
    161 C23        89.4879   65.9320   32.1358 Z3         2 LUT      0.391255
    162 O23        90.1003   65.2822   30.9452 S1         2 LUT     -0.528210
    163 C24        88.1521   66.6891   31.9355 W6         2 LUT     -0.258361
    164 C25        87.0969   66.6774   32.7870 Z5         2 LUT      0.133546
    165 C26        87.1699   65.8993   34.1842 W8         2 LUT     -0.147008
    166 C27        86.3624   66.6359   35.2262 Z7         2 LUT      0.023843
    167 C28        85.6364   66.0210   36.1751 Z8         2 LUT     -0.216987
    168 C29        84.9523   66.4658   37.3643 Z9         2 LUT      0.206524
    169 C30        83.9395   65.7077   37.7873 Y1         2 LUT     -0.215556
    170 C31        83.1073   65.9033   38.9396 Y2         2 LUT      0.025142
    171 C32        81.9375   65.1965   39.1401 Y3         2 LUT     -0.212209
    172 C33        80.9198   65.2729   40.2101 Y4         2 LUT      0.240937
    173 C34        79.7732   64.5545   40.1078 Y5         2 LUT     -0.218862
    174 C35        78.6079   64.5723   40.9501 Y6         2 LUT     -0.023547
    175 C36        89.5072   66.4936   35.2286 Y7         2 LUT     -0.393485
    176 C37        88.7494   64.2748   35.4561 Y7         2 LUT     -0.393485
    177 C38        85.8312   67.3892   32.3246 Y9         2 LUT     -0.387526
    178 C39        85.5130   67.7020   38.0211 W1         2 LUT     -0.322618
    179 C40        80.9676   66.4765   41.0622 W2         2 LUT     -0.358472
    180 H403       80.5354   66.2872   42.0659 R7         2 LUT      0.097720
    181 H402       81.9535   66.8764   41.3657 R7         2 LUT      0.097720
    182 H401       80.3467   67.3085   40.6990 R7         2 LUT      0.097720
    183 H393       85.6210   67.5888   39.0826 R4         2 LUT      0.082505
    184 H392       86.4222   68.1569   37.5586 R4         2 LUT      0.082505
    185 H391       84.7284   68.4504   37.8906 R4         2 LUT      0.082505
    186 H383       85.9679   67.9722   31.3990 R1         2 LUT      0.104030
    187 H382       85.0636   66.6987   32.1413 R1         2 LUT      0.104030
    188 H381       85.4062   68.0755   33.0520 R1         2 LUT      0.104030
    189 H373       88.3491   64.4229   36.4588 T4         2 LUT      0.089537
    190 H372       88.2694   63.3612   35.0019 T4         2 LUT      0.089537
    191 H371       89.7714   63.9481   35.7205 T4         2 LUT      0.089537
    192 H363       89.1035   66.8088   36.2523 T4         2 LUT      0.089537
    193 H362       90.4592   66.0939   35.4902 T4         2 LUT      0.089537
    194 H361       89.6806   67.4043   34.6499 T4         2 LUT      0.089537
    195 H222       90.2984   64.5774   33.4674 U2         2 LUT      0.127376
    196 H221       88.6599   64.1936   32.7743 U2         2 LUT      0.127376
    197 H203       75.1246   62.4916   39.6051 R7         2 LUT      0.087068
    198 H202       73.9446   61.6678   40.8473 R7         2 LUT      0.087068
    199 H201       73.7289   63.3309   40.1909 R7         2 LUT      0.087068
    200 H193       69.9160   60.6697   44.8291 R4         2 LUT      0.089716
    201 H192       70.2646   61.5238   43.3466 R4         2 LUT      0.089716
    202 H191       71.3705   60.3320   44.0727 R4         2 LUT      0.089716
    203 H183       68.5347   65.3313   47.7062 R1         2 LUT      0.094572
    204 H182       68.6691   64.0499   46.5266 R1         2 LUT      0.094572
    205 H181       67.1578   64.1753   47.2863 R1         2 LUT      0.094572
    206 H173       71.7183   61.9169   50.1498 T4         2 LUT      0.093752
    207 H172       70.6991   63.2389   50.6232 T4         2 LUT      0.093752
    208 H171       70.6781   61.8543   51.7092 T4         2 LUT      0.093752
    209 H163       70.7783   59.7613   48.7520 T4         2 LUT      0.093752
    210 H162       70.3890   59.3307   50.3748 T4         2 LUT      0.093752
    211 H161       69.1229   59.4603   49.1453 T4         2 LUT      0.093752
    212 HO3        68.3577   63.2185   52.8112 Q1         2 LUT      0.300121
    213 H8         71.5489   63.2480   46.8156 U7         2 LUT      0.080784
    214 H7         69.5200   60.9310   46.8681 U6         2 LUT      0.042190
    215 H42        66.6688   63.6207   49.2799 U5         2 LUT      0.145166
    216 H41        67.7826   64.7747   50.0207 U5         2 LUT      0.145166
    217 H35        78.5036   65.2714   41.7173 T3         2 LUT      0.077919
    218 H34        79.6886   63.9499   39.2288 T2         2 LUT      0.073626
    219 H32        81.6580   64.4478   38.4212 T1         2 LUT      0.092510
    220 H31        83.3941   66.7407   39.5675 U9         2 LUT      0.070048
    221 H30        83.7430   64.7781   37.2406 U8         2 LUT      0.085442
    222 H3         66.6331   62.6241   51.4123 U3         2 LUT     -0.031596
    223 H28        85.5637   64.9231   35.9850 U7         2 LUT      0.084728
    224 H27        86.4572   67.7232   35.2599 U6         2 LUT      0.087291
    225 H26        86.8287   64.8419   34.0184 Q6         2 LUT      0.075325
    226 H24        88.0865   67.1760   30.9218 Q5         2 LUT      0.094482
    227 H23        90.2066   66.7309   32.4526 U3         2 LUT     -0.024869
    228 H22        67.5230   60.9784   49.8487 U2         2 LUT      0.127376
    229 H21        68.2578   60.7874   51.4107 U2         2 LUT      0.127376
    230 H15        77.2984   63.1058   40.0551 T3         2 LUT      0.093200
    231 H14        76.5868   64.6510   42.5923 T2         2 LUT      0.068865
    232 H12        74.6073   64.0598   43.7151 T1         2 LUT      0.095507
    233 H11        72.6463   62.0395   42.4251 U9         2 LUT      0.068930
    234 H10        72.8359   63.7437   45.1151 U8         2 LUT      0.083911
    235 H1         89.4102   64.7587   30.4863 Q1         2 LUT      0.297311
@<TRIPOS>BOND
    1     6     1 1
    2     7     2 1
    3     8     3 1
    4     9     4 1
    5    11     4 1
    6    12     6 1
    7    13     9 1
    8    16     9 1
    9    25     5 1
   10    25    16 1
   11    26    10 1
   12    26    17 1
   13    27    18 1
   14    28    14 1
   15    28    19 1
   16    29    12 1
   17    30    13 1
   18    31    24 1
   19    32     1 1
   20    32    25 1
   21    33    21 1
   22    33    26 1
   23    34    22 1
   24    34    27 1
   25    35    23 1
   26    35    28 1
   27    36    12 1
   28    36    24 1
   29    37    13 1
   30    37    15 1
   31    38    31 1
   32    39    20 1
   33    39    32 1
   34    40     2 1
   35    40    33 1
   36    41     3 1
   37    41    34 1
   38    42     4 1
   39    42    35 1
   40    43    38 1
   41    44     5 1
   42    44    17 1
   43    44    39 1
   44    45    10 1
   45    45    18 1
   46    45    40 1
   47    46    19 1
   48    46    41 1
   49    47    14 1
   50    47    16 1
   51    47    42 1
   52    48    38 1
   53    49    48 1
   54    50    49 1
   55    51    50 1
   56    52    51 1
   57    53    51 1
   58    54    53 1
   59    55    54 1
   60    56    55 1
   61    57    56 1
   62    58    56 1
   63    59    58 1
   64    60    59 1
   65    61    60 1
   66    62    61 1
   67    63    61 1
   68    64    27 1
   69    64    46 1
   70    65     5 1
   71    65    10 1
   72    65    64 1
   73    65    14 1
   74    66    23 1
   75    67    23 1
   76    68    23 1
   77    69    22 1
   78    70    22 1
   79    71    22 1
   80    72    21 1
   81    73    21 1
   82    74    21 1
   83    75    20 1
   84    76    20 1
   85    77    20 1
   86    78    15 1
   87    79    15 1
   88    80    15 1
   89    81     8 1
   90    82     8 1
   91    83     8 1
   92    84     7 1
   93    85     7 1
   94    86     6 1
   95    87     6 1
   96    88     3 1
   97    89     3 1
   98    90     1 1
   99    91     1 1
  100    92    63 1
  101    93    63 1
  102    94    63 1
  103    95    62 1
  104    96    62 1
  105    97    62 1
  106    98    60 1
  107    99    60 1
  108   100    59 1
  109   101    59 1
  110   102    58 1
  111   103    58 1
  112   104    57 1
  113   105    57 1
  114   106    57 1
  115   107    55 1
  116   108    55 1
  117   109    54 1
  118   110    54 1
  119   111    53 1
  120   112    53 1
  121   113    19 1
  122   114    18 1
  123   115    17 1
  124   116     9 1
  125   117     2 1
  126   118    52 1
  127   119    52 1
  128   120    52 1
  129   121    51 1
  130   122    50 1
  131   123    50 1
  132   124    49 1
  133   125    49 1
  134   126    48 1
  135   127    48 1
  136   128    43 1
  137   129    43 1
  138   130    43 1
  139   131    39 1
  140   132    32 1
  141   133    31 1
  142   134    61 1
  143   135    56 1
  144   136    24 1
  145   137    24 1
  146   139   138 1
  147   140   139 1
  148   141   140 1
  149   142   140 1
  150   143   142 1
  151   144   138 1
  152   144   143 1
  153   145   144 1
  154   146   145 1
  155   147   146 1
  156   148   147 1
  157   149   148 1
  158   150   149 1
  159   151   150 1
  160   152   151 1
  161   153   152 1
  162   154   138 1
  163   155   138 1
  164   156   143 1
  165   157   147 1
  166   158   151 1
  167   160   159 1
  168   161   160 1
  169   162   161 1
  170   163   161 1
  171   164   163 1
  172   165   159 1
  173   165   164 1
  174   166   165 1
  175   167   166 1
  176   168   167 1
  177   169   168 1
  178   170   169 1
  179   171   170 1
  180   172   171 1
  181   173   172 1
  182   174   153 1
  183   174   173 1
  184   175   159 1
  185   176   159 1
  186   177   164 1
  187   178   168 1
  188   179   172 1
  189   180   179 1
  190   181   179 1
  191   182   179 1
  192   183   178 1
  193   184   178 1
  194   185   178 1
  195   186   177 1
  196   187   177 1
  197   188   177 1
  198   189   176 1
  199   190   176 1
  200   191   176 1
  201   192   175 1
  202   193   175 1
  203   194   175 1
  204   195   160 1
  205   196   160 1
  206   197   158 1
  207   198   158 1
  208   199   158 1
  209   200   157 1
  210   201   157 1
  211   202   157 1
  212   203   156 1
  213   204   156 1
  214   205   156 1
  215   206   155 1
  216   207   155 1
  217   208   155 1
  218   209   154 1
  219   210   154 1
  220   211   154 1
  221   212   141 1
  222   213   146 1
  223   214   145 1
  224   215   142 1
  225   216   142 1
  226   217   174 1
  227   218   173 1
  228   219   171 1
  229   220   170 1
  230   221   169 1
  231   222   140 1
  232   223   167 1
  233   224   166 1
  234   225   165 1
  235   226   163 1
  236   227   161 1
  237   228   139 1
  238   229   139 1
  239   230   153 1
  240   231   152 1
  241   232   150 1
  242   233   149 1
  243   234   148 1
  244   235   162 1
  245   65    153 1
  246   65    174 1
@<TRIPOS>SUBSTRUCTURE
      1 CLA               1 ****               0 ****  **** 
      2 LUT             138 ****               0 ****  **** 
