@<TRIPOS>MOLECULE
Cpptraj generated mol2 file.
  235   246     2     0     0
SMALL
USER_CHARGES


@<TRIPOS>ATOM
      1 CAA        78.3729   57.6305   35.4375 a2         1 CLA     -0.055900
      2 CAB        77.7884   61.8567   44.3155 c8         1 CLA     -0.148500
      3 CAC        71.6853   57.0846   44.0114 a2         1 CLA     -0.012600
      4 CAD        74.4363   55.2499   36.6071 ck         1 CLA      0.398800
      5 NA         77.3112   58.3586   38.8486 ns         1 CLA     -0.225500
      6 CBA        79.6349   57.6286   34.5893 a2         1 CLA     -0.135000
      7 CBB        78.7946   61.6462   45.2148 c0         1 CLA     -0.395200
      8 CBC        71.9737   55.6084   43.9418 a3         1 CLA     -0.037700
      9 CBD        75.9424   55.6681   36.4195 a1         1 CLA     -0.053900
     10 NB         77.0444   59.8821   41.3327 nm         1 CLA     -0.295700
     11 OBD        73.8609   54.3912   35.9340 o2         1 CLA     -0.494600
     12 CGA        80.1553   56.1300   34.3294 c4         1 CLA      0.827000
     13 CGD        76.8344   54.4115   36.3564 c4         1 CLA      0.655300
     14 ND         74.6402   57.2379   39.4726 nm         1 CLA     -0.291600
     15 CED        77.4013   52.6972   37.9254 a3         1 CLA      0.005400
     16 CHA        76.1629   56.6615   37.5666 cs         1 CLA     -0.123800
     17 CHB        78.9981   59.8118   39.9569 aa         1 CLA     -0.291900
     18 CHC        75.6431   60.1348   43.3826 aa         1 CLA     -0.090400
     19 CHD        72.7323   57.0712   40.9394 aa         1 CLA     -0.052000
     20 CMA        80.8490   57.9109   38.2596 a3         1 CLA     -0.230700
     21 CMB        80.1822   61.9021   42.0958 a3         1 CLA     -0.180800
     22 CMC        73.4119   59.5047   45.3867 a3         1 CLA     -0.134000
     23 CMD        71.6189   55.0407   38.6317 a3         1 CLA     -0.141100
     24 C1         81.2905   54.3265   35.5049 a2         1 CLA      0.023000
     25 C1A        77.2649   57.4336   37.8073 ac         1 CLA     -0.015100
     26 C1B        78.3119   60.2696   41.0590 cr         1 CLA      0.054700
     27 C1C        74.5653   59.2731   43.1002 cn         1 CLA     -0.005600
     28 C1D        73.3651   56.7484   39.7266 ap         1 CLA     -0.047300
     29 O1A        80.1407   55.4819   33.2726 o2         1 CLA     -0.610800
     30 O1D        77.8156   54.1661   35.6491 o2         1 CLA     -0.558200
     31 C2         82.1900   54.2312   36.7100 c8         1 CLA     -0.325100
     32 C2A        78.5438   57.3500   36.9699 a1         1 CLA      0.098600
     33 C2B        78.8043   61.1796   42.0692 cb         1 CLA      0.088500
     34 C2C        73.5220   58.9213   44.0280 cb         1 CLA      0.053700
     35 C2D        72.8712   55.8944   38.6848 cb         1 CLA      0.058900
     36 O2A        80.6446   55.6325   35.5312 o1         1 CLA     -0.437200
     37 O2D        76.4577   53.6456   37.3920 o1         1 CLA     -0.357600
     38 C3         82.5229   53.1051   37.3769 c5         1 CLA      0.031200
     39 C3A        79.4223   58.4886   37.6878 a1         1 CLA      0.166800
     40 C3B        77.7890   61.2111   43.0043 cb         1 CLA      0.035000
     41 C3C        72.7792   57.9259   43.4045 cb         1 CLA     -0.089900
     42 C3D        73.9827   55.8474   37.8307 cb         1 CLA     -0.035900
     43 C4         81.8961   52.5469   38.6826 a3         1 CLA     -0.053300
     44 C4A        78.5379   58.9394   38.8908 ac         1 CLA      0.001800
     45 C4B        76.7297   60.4121   42.5671 cn         1 CLA     -0.020900
     46 C4C        73.2514   57.8270   41.9960 cr         1 CLA     -0.044400
     47 C4D        74.9839   56.6540   38.3187 c6         1 CLA     -0.046000
     48 C5         83.8393   52.4705   36.9742 a2         1 CLA     -0.070400
     49 C6         85.0533   53.4334   37.0545 a2         1 CLA      0.043900
     50 C7         85.4198   53.8739   38.4206 a2         1 CLA     -0.150000
     51 C8         86.6089   54.9488   38.5607 a1         1 CLA      0.064200
     52 C9         87.9389   54.5117   38.0291 a3         1 CLA     -0.259300
     53 C10        86.7324   55.5277   40.0075 a2         1 CLA     -0.071900
     54 C11        85.7032   56.7167   40.1571 a2         1 CLA      0.014500
     55 C12        85.6053   57.3952   41.5408 a2         1 CLA     -0.112100
     56 C13        85.0501   56.5146   42.6756 a1         1 CLA      0.089200
     57 C14        83.7325   55.7571   42.4035 a3         1 CLA     -0.239100
     58 C15        85.1167   57.1984   44.0739 a2         1 CLA     -0.102200
     59 C16        84.2961   58.4895   44.3136 a2         1 CLA      0.023900
     60 C17        84.0843   58.7743   45.8268 a2         1 CLA     -0.105700
     61 C18        83.7044   60.2763   46.0452 a1         1 CLA      0.206800
     62 C19        82.3827   60.6459   45.3625 a3         1 CLA     -0.280100
     63 C20        83.5977   60.5208   47.5391 a3         1 CLA     -0.280100
     64 NC         74.4001   58.6503   41.8962 nx         1 CLA     -0.309200
     65 MG         75.8205   58.6009   40.3971 mg         1 CLA      0.895000
     66 HMD3       71.8775   54.2207   38.0120 dc         1 CLA      0.064300
     67 HMD2       71.3261   54.7285   39.6307 dc         1 CLA      0.064300
     68 HMD1       70.9191   55.8088   38.3650 dc         1 CLA      0.064300
     69 HMC3       73.6106   60.5488   45.4026 dc         1 CLA      0.052100
     70 HMC2       72.5006   59.4370   45.8408 dc         1 CLA      0.052100
     71 HMC1       74.2020   59.0044   45.9448 dc         1 CLA      0.052100
     72 HMB3       80.1864   62.7984   42.7155 dc         1 CLA      0.063600
     73 HMB2       80.9501   61.2665   42.4207 dc         1 CLA      0.063600
     74 HMB1       80.3780   62.1163   41.0478 dc         1 CLA      0.063600
     75 HMA3       81.3884   57.4529   37.4801 dc         1 CLA      0.058300
     76 HMA2       81.5173   58.6695   38.6573 dc         1 CLA      0.058300
     77 HMA1       80.6046   57.1435   38.9967 dc         1 CLA      0.058300
     78 HED3       78.3742   53.2120   37.7837 dc         1 CLA      0.079300
     79 HED2       77.2265   52.5686   39.0286 dc         1 CLA      0.079300
     80 HED1       77.3438   51.7471   37.4217 dc         1 CLA      0.079300
     81 HBC3       72.0759   55.2727   42.9491 dc         1 CLA      0.016300
     82 HBC2       72.8023   55.4414   44.6254 dc         1 CLA      0.016300
     83 HBC1       71.0779   55.1988   44.3984 dc         1 CLA      0.016300
     84 HBB2       78.8373   62.0865   46.2125 da         1 CLA      0.183000
     85 HBB1       79.6675   61.0453   44.8846 da         1 CLA      0.183000
     86 HBA2       79.5456   58.1333   33.6314 dc         1 CLA      0.029400
     87 HBA1       80.4371   58.1191   35.0598 dc         1 CLA      0.029400
     88 HAC2       71.5925   57.2588   45.0437 dc         1 CLA      0.029300
     89 HAC1       70.7769   57.3850   43.5531 dc         1 CLA      0.029300
     90 HAA2       77.8119   56.7947   35.0372 dc         1 CLA      0.028700
     91 HAA1       77.7326   58.5038   35.3036 dc         1 CLA      0.028700
     92 H203       83.3870   61.5640   47.7513 dc         1 CLA      0.065600
     93 H202       82.7299   59.9132   47.9202 dc         1 CLA      0.065600
     94 H201       84.4929   60.2389   48.0991 dc         1 CLA      0.065600
     95 H193       81.5678   60.0841   45.7791 dc         1 CLA      0.065600
     96 H192       82.0780   61.6755   45.4933 dc         1 CLA      0.065600
     97 H191       82.4243   60.4084   44.3463 dc         1 CLA      0.065600
     98 H172       83.3309   58.1251   46.2835 dc         1 CLA      0.027600
     99 H171       85.0387   58.5837   46.3277 dc         1 CLA      0.027600
    100 H162       84.9565   59.2677   43.9528 dc         1 CLA      0.002900
    101 H161       83.3853   58.4758   43.6976 dc         1 CLA      0.002900
    102 H152       84.8119   56.5452   44.8053 dc         1 CLA      0.029100
    103 H151       86.1816   57.3837   44.1375 dc         1 CLA      0.029100
    104 H143       83.1507   56.5011   41.8337 dc         1 CLA      0.063600
    105 H142       84.0002   54.8072   41.8839 dc         1 CLA      0.063600
    106 H141       83.1396   55.4902   43.2674 dc         1 CLA      0.063600
    107 H122       86.6220   57.6032   41.8654 dc         1 CLA      0.032500
    108 H121       85.1011   58.4165   41.5324 dc         1 CLA      0.032500
    109 H112       85.9569   57.6026   39.5576 dc         1 CLA      0.006600
    110 H111       84.7421   56.3330   39.9273 dc         1 CLA      0.006600
    111 H102       86.5807   54.7638   40.7813 dc         1 CLA      0.024100
    112 H101       87.7389   55.9388   40.1931 dc         1 CLA      0.024100
    113 HHD        71.7569   56.6231   41.0122 da         1 CLA      0.174300
    114 HHC        75.5726   60.5089   44.3680 da         1 CLA      0.136800
    115 HHB        80.0219   60.1623   39.8073 da         1 CLA      0.138300
    116 HBD        76.0359   56.1669   35.4528 dc         1 CLA      0.107700
    117 HAB        76.9061   62.4713   44.6399 da         1 CLA      0.155200
    118 H93        88.6669   55.3853   37.9951 dc         1 CLA      0.069500
    119 H92        88.2501   53.9232   38.7840 dc         1 CLA      0.069500
    120 H91        87.8719   53.9925   37.0696 dc         1 CLA      0.069500
    121 H8         86.2375   55.7472   37.9339 dc         1 CLA      0.029300
    122 H72        84.5389   54.4725   38.7472 dc         1 CLA      0.044400
    123 H71        85.5818   53.0469   39.0879 dc         1 CLA      0.044400
    124 H62        85.9843   52.9015   36.7414 dc         1 CLA      0.015600
    125 H61        84.8625   54.2951   36.4932 dc         1 CLA      0.015600
    126 H52        84.1133   51.5843   37.5807 dc         1 CLA      0.033200
    127 H51        83.7442   52.0558   35.9934 dc         1 CLA      0.033200
    128 H43        81.5196   51.5136   38.6288 dc         1 CLA      0.037000
    129 H42        82.5350   52.5529   39.5465 dc         1 CLA      0.037000
    130 H41        81.0835   53.2147   38.9620 dc         1 CLA      0.037000
    131 H3A        79.5858   59.3325   37.0629 dc         1 CLA      0.041100
    132 H2A        78.9066   56.3150   37.0684 dc         1 CLA      0.083100
    133 H2         82.4863   55.1168   37.1753 da         1 CLA      0.180900
    134 H18        84.4280   60.9076   45.5146 dc         1 CLA     -0.003900
    135 H13        85.8339   55.7878   42.8156 dc         1 CLA      0.019700
    136 H12        80.5786   53.5193   35.4332 dc         1 CLA      0.120400
    137 H11        81.9131   54.2790   34.6048 dc         1 CLA      0.120400
    138 C1         68.2716   61.2958   51.2150 Z1         2 LUT      0.509236
    139 C2         66.8386   61.0493   51.6163 Z2         2 LUT     -0.434695
    140 C3         65.8930   62.2838   51.9371 Z3         2 LUT      0.437453
    141 O3         66.1221   62.5824   53.2681 S1         2 LUT     -0.547129
    142 C4         66.2156   63.4064   50.9811 Z4         2 LUT     -0.468603
    143 C5         67.2340   63.1154   49.8120 Z5         2 LUT      0.279246
    144 C6         68.1385   62.1193   49.9219 Z6         2 LUT     -0.305473
    145 C7         68.6030   61.5180   48.6968 Z7         2 LUT      0.069402
    146 C8         69.2647   62.0603   47.6455 Z8         2 LUT     -0.191631
    147 C9         69.5831   61.6386   46.3244 Z9         2 LUT      0.196698
    148 C10        70.5433   62.3952   45.5979 Y1         2 LUT     -0.208611
    149 C11        71.2138   62.2108   44.3913 Y2         2 LUT      0.030784
    150 C12        72.2948   62.9838   44.0777 Y3         2 LUT     -0.220316
    151 C13        73.2107   63.0558   42.9659 Y4         2 LUT      0.215937
    152 C14        74.4082   63.6585   43.1167 Y5         2 LUT     -0.185793
    153 C15        75.3937   63.8262   42.0397 Y6         2 LUT     -0.057835
    154 C16        68.9406   59.9331   51.1211 Y7         2 LUT     -0.405615
    155 C17        69.0583   61.9890   52.4304 Y7         2 LUT     -0.405615
    156 C18        66.7219   63.8507   48.5267 Y9         2 LUT     -0.369639
    157 C19        69.0889   60.2414   45.8831 W1         2 LUT     -0.333362
    158 C20        72.7995   62.3251   41.6718 W2         2 LUT     -0.323439
    159 C21        87.1996   64.7938   36.2200 Z1         2 LUT      0.406104
    160 C22        88.0179   64.3665   35.0083 Z2         2 LUT     -0.404965
    161 C23        88.0069   65.3041   33.7541 Z3         2 LUT      0.391255
    162 O23        88.6231   64.4657   32.7515 S1         2 LUT     -0.528210
    163 C24        86.5971   65.9505   33.6118 W6         2 LUT     -0.258361
    164 C25        85.6099   65.7855   34.4569 Z5         2 LUT      0.133546
    165 C26        85.6562   65.0858   35.8407 W8         2 LUT     -0.147008
    166 C27        84.8057   65.5491   37.0105 Z7         2 LUT      0.023843
    167 C28        83.5105   65.3415   37.3151 Z8         2 LUT     -0.216987
    168 C29        82.9157   65.8521   38.5065 Z9         2 LUT      0.206524
    169 C30        81.6945   65.3423   38.9307 Y1         2 LUT     -0.215556
    170 C31        80.9142   65.5527   40.1209 Y2         2 LUT      0.025142
    171 C32        79.6629   65.2406   40.1866 Y3         2 LUT     -0.212209
    172 C33        78.9006   65.3094   41.4124 Y4         2 LUT      0.240937
    173 C34        77.6850   64.7123   41.3300 Y5         2 LUT     -0.218862
    174 C35        76.5519   64.4663   42.2978 Y6         2 LUT     -0.023547
    175 C36        87.9384   66.0215   36.7346 Y7         2 LUT     -0.393485
    176 C37        87.3167   63.7091   37.2591 Y7         2 LUT     -0.393485
    177 C38        84.2652   66.3046   34.1707 Y9         2 LUT     -0.387526
    178 C39        83.6784   66.9434   39.3260 W1         2 LUT     -0.322618
    179 C40        79.3282   66.2596   42.5340 W2         2 LUT     -0.358472
    180 H403       79.4585   67.2974   42.2263 R7         2 LUT      0.097720
    181 H402       78.5648   66.2755   43.2794 R7         2 LUT      0.097720
    182 H401       80.2654   65.8599   42.9917 R7         2 LUT      0.097720
    183 H393       83.0062   67.3820   40.0149 R4         2 LUT      0.082505
    184 H392       84.5072   66.5801   39.8874 R4         2 LUT      0.082505
    185 H391       83.9381   67.7827   38.6456 R4         2 LUT      0.082505
    186 H383       84.0787   66.5848   33.0806 R1         2 LUT      0.104030
    187 H382       83.5978   65.4454   34.3746 R1         2 LUT      0.104030
    188 H381       83.9684   67.1750   34.7473 R1         2 LUT      0.104030
    189 H373       86.7824   64.0495   38.1585 T4         2 LUT      0.089537
    190 H372       86.7762   62.7964   36.9841 T4         2 LUT      0.089537
    191 H371       88.3250   63.4204   37.5291 T4         2 LUT      0.089537
    192 H363       88.9292   65.6725   36.8736 T4         2 LUT      0.089537
    193 H362       87.8906   66.8654   35.9819 T4         2 LUT      0.089537
    194 H361       87.5040   66.3179   37.6778 T4         2 LUT      0.089537
    195 H222       89.0424   64.2164   35.3403 U2         2 LUT      0.127376
    196 H221       87.4879   63.4994   34.5839 U2         2 LUT      0.127376
    197 H203       72.2976   62.8836   40.9758 R7         2 LUT      0.087068
    198 H202       73.6029   61.8828   41.1333 R7         2 LUT      0.087068
    199 H201       72.2481   61.4502   41.9366 R7         2 LUT      0.087068
    200 H193       69.1603   60.2365   44.8378 R4         2 LUT      0.089716
    201 H192       69.8176   59.4763   46.2246 R4         2 LUT      0.089716
    202 H191       68.1287   59.9868   46.1590 R4         2 LUT      0.089716
    203 H183       66.2120   64.7575   48.7736 R1         2 LUT      0.094572
    204 H182       67.4873   64.2904   47.8509 R1         2 LUT      0.094572
    205 H181       66.0856   63.2096   47.8082 R1         2 LUT      0.094572
    206 H173       69.1117   61.4310   53.3331 T4         2 LUT      0.093752
    207 H172       70.1228   62.1538   52.1503 T4         2 LUT      0.093752
    208 H171       68.4934   62.8559   52.7535 T4         2 LUT      0.093752
    209 H163       68.1586   59.2986   50.6304 T4         2 LUT      0.093752
    210 H162       69.8198   59.9787   50.4249 T4         2 LUT      0.093752
    211 H161       69.1141   59.5424   52.1306 T4         2 LUT      0.093752
    212 HO3        65.3416   62.2608   53.8057 Q1         2 LUT      0.300121
    213 H8         69.5702   63.0668   47.8851 U7         2 LUT      0.080784
    214 H7         68.3396   60.5097   48.5085 U6         2 LUT      0.042190
    215 H42        65.3177   63.9339   50.6351 U5         2 LUT      0.145166
    216 H41        66.7078   64.1849   51.5490 U5         2 LUT      0.145166
    217 H35        76.5359   64.7725   43.3789 T3         2 LUT      0.077919
    218 H34        77.4463   64.3692   40.3020 T2         2 LUT      0.073626
    219 H32        79.2608   64.6711   39.3526 T1         2 LUT      0.092510
    220 H31        81.3513   65.9579   40.9536 U9         2 LUT      0.070048
    221 H30        81.2944   64.7395   38.1533 U8         2 LUT      0.085442
    222 H3         64.8479   62.1760   51.7517 U3         2 LUT     -0.031596
    223 H28        82.9212   64.7117   36.6685 U7         2 LUT      0.084728
    224 H27        85.2016   66.1541   37.7463 U6         2 LUT      0.087291
    225 H26        85.3367   64.1414   35.4321 Q6         2 LUT      0.075325
    226 H24        86.4745   66.4391   32.6769 Q5         2 LUT      0.094482
    227 H23        88.6455   66.2196   33.8842 U3         2 LUT     -0.024869
    228 H22        66.3944   60.5911   50.7520 U2         2 LUT      0.127376
    229 H21        66.7618   60.3001   52.3828 U2         2 LUT      0.127376
    230 H15        75.1873   63.3741   41.0899 T3         2 LUT      0.093200
    231 H14        74.6594   63.9758   44.1873 T2         2 LUT      0.068865
    232 H12        72.5881   63.5975   45.0039 T1         2 LUT      0.095507
    233 H11        70.8145   61.5142   43.5728 U9         2 LUT      0.068930
    234 H10        70.8617   63.2871   46.1185 U8         2 LUT      0.083911
    235 H1         88.5089   64.9520   31.9192 Q1         2 LUT      0.297311
@<TRIPOS>BOND
    1     6     1 1
    2     7     2 1
    3     8     3 1
    4     9     4 1
    5    11     4 1
    6    12     6 1
    7    13     9 1
    8    16     9 1
    9    25     5 1
   10    25    16 1
   11    26    10 1
   12    26    17 1
   13    27    18 1
   14    28    14 1
   15    28    19 1
   16    29    12 1
   17    30    13 1
   18    31    24 1
   19    32     1 1
   20    32    25 1
   21    33    21 1
   22    33    26 1
   23    34    22 1
   24    34    27 1
   25    35    23 1
   26    35    28 1
   27    36    12 1
   28    36    24 1
   29    37    13 1
   30    37    15 1
   31    38    31 1
   32    39    20 1
   33    39    32 1
   34    40     2 1
   35    40    33 1
   36    41     3 1
   37    41    34 1
   38    42     4 1
   39    42    35 1
   40    43    38 1
   41    44     5 1
   42    44    17 1
   43    44    39 1
   44    45    10 1
   45    45    18 1
   46    45    40 1
   47    46    19 1
   48    46    41 1
   49    47    14 1
   50    47    16 1
   51    47    42 1
   52    48    38 1
   53    49    48 1
   54    50    49 1
   55    51    50 1
   56    52    51 1
   57    53    51 1
   58    54    53 1
   59    55    54 1
   60    56    55 1
   61    57    56 1
   62    58    56 1
   63    59    58 1
   64    60    59 1
   65    61    60 1
   66    62    61 1
   67    63    61 1
   68    64    27 1
   69    64    46 1
   70    65     5 1
   71    65    10 1
   72    65    64 1
   73    65    14 1
   74    66    23 1
   75    67    23 1
   76    68    23 1
   77    69    22 1
   78    70    22 1
   79    71    22 1
   80    72    21 1
   81    73    21 1
   82    74    21 1
   83    75    20 1
   84    76    20 1
   85    77    20 1
   86    78    15 1
   87    79    15 1
   88    80    15 1
   89    81     8 1
   90    82     8 1
   91    83     8 1
   92    84     7 1
   93    85     7 1
   94    86     6 1
   95    87     6 1
   96    88     3 1
   97    89     3 1
   98    90     1 1
   99    91     1 1
  100    92    63 1
  101    93    63 1
  102    94    63 1
  103    95    62 1
  104    96    62 1
  105    97    62 1
  106    98    60 1
  107    99    60 1
  108   100    59 1
  109   101    59 1
  110   102    58 1
  111   103    58 1
  112   104    57 1
  113   105    57 1
  114   106    57 1
  115   107    55 1
  116   108    55 1
  117   109    54 1
  118   110    54 1
  119   111    53 1
  120   112    53 1
  121   113    19 1
  122   114    18 1
  123   115    17 1
  124   116     9 1
  125   117     2 1
  126   118    52 1
  127   119    52 1
  128   120    52 1
  129   121    51 1
  130   122    50 1
  131   123    50 1
  132   124    49 1
  133   125    49 1
  134   126    48 1
  135   127    48 1
  136   128    43 1
  137   129    43 1
  138   130    43 1
  139   131    39 1
  140   132    32 1
  141   133    31 1
  142   134    61 1
  143   135    56 1
  144   136    24 1
  145   137    24 1
  146   139   138 1
  147   140   139 1
  148   141   140 1
  149   142   140 1
  150   143   142 1
  151   144   138 1
  152   144   143 1
  153   145   144 1
  154   146   145 1
  155   147   146 1
  156   148   147 1
  157   149   148 1
  158   150   149 1
  159   151   150 1
  160   152   151 1
  161   153   152 1
  162   154   138 1
  163   155   138 1
  164   156   143 1
  165   157   147 1
  166   158   151 1
  167   160   159 1
  168   161   160 1
  169   162   161 1
  170   163   161 1
  171   164   163 1
  172   165   159 1
  173   165   164 1
  174   166   165 1
  175   167   166 1
  176   168   167 1
  177   169   168 1
  178   170   169 1
  179   171   170 1
  180   172   171 1
  181   173   172 1
  182   174   153 1
  183   174   173 1
  184   175   159 1
  185   176   159 1
  186   177   164 1
  187   178   168 1
  188   179   172 1
  189   180   179 1
  190   181   179 1
  191   182   179 1
  192   183   178 1
  193   184   178 1
  194   185   178 1
  195   186   177 1
  196   187   177 1
  197   188   177 1
  198   189   176 1
  199   190   176 1
  200   191   176 1
  201   192   175 1
  202   193   175 1
  203   194   175 1
  204   195   160 1
  205   196   160 1
  206   197   158 1
  207   198   158 1
  208   199   158 1
  209   200   157 1
  210   201   157 1
  211   202   157 1
  212   203   156 1
  213   204   156 1
  214   205   156 1
  215   206   155 1
  216   207   155 1
  217   208   155 1
  218   209   154 1
  219   210   154 1
  220   211   154 1
  221   212   141 1
  222   213   146 1
  223   214   145 1
  224   215   142 1
  225   216   142 1
  226   217   174 1
  227   218   173 1
  228   219   171 1
  229   220   170 1
  230   221   169 1
  231   222   140 1
  232   223   167 1
  233   224   166 1
  234   225   165 1
  235   226   163 1
  236   227   161 1
  237   228   139 1
  238   229   139 1
  239   230   153 1
  240   231   152 1
  241   232   150 1
  242   233   149 1
  243   234   148 1
  244   235   162 1
  245   65    153 1
  246   65    174 1
@<TRIPOS>SUBSTRUCTURE
      1 CLA               1 ****               0 ****  **** 
      2 LUT             138 ****               0 ****  **** 
