@<TRIPOS>MOLECULE
Cpptraj generated mol2 file.
  235   246     2     0     0
SMALL
USER_CHARGES


@<TRIPOS>ATOM
      1 CAA        78.9688   58.3945   33.9393 a2         1 CLA     -0.055900
      2 CAB        79.6955   61.9115   42.9857 c8         1 CLA     -0.148500
      3 CAC        72.5647   58.1115   42.7458 a2         1 CLA     -0.012600
      4 CAD        74.7078   56.0340   35.0630 ck         1 CLA      0.398800
      5 NA         78.0541   58.8854   37.3376 ns         1 CLA     -0.225500
      6 CBA        80.2753   58.1934   32.9953 a2         1 CLA     -0.135000
      7 CBB        80.8757   61.8712   43.6118 c0         1 CLA     -0.395200
      8 CBC        72.7498   56.6426   42.8262 a3         1 CLA     -0.037700
      9 CBD        76.1143   56.6303   34.6597 a1         1 CLA     -0.053900
     10 NB         78.1800   60.2333   39.9811 nm         1 CLA     -0.295700
     11 OBD        73.9985   55.2804   34.3755 o2         1 CLA     -0.494600
     12 CGA        80.7110   56.8027   32.6006 c4         1 CLA      0.827000
     13 CGD        76.9690   55.4483   34.1312 c4         1 CLA      0.655300
     14 ND         75.2721   57.9431   38.0659 nm         1 CLA     -0.291600
     15 CED        77.7189   53.1466   34.4084 a3         1 CLA      0.005400
     16 CHA        76.6016   57.4900   35.8986 cs         1 CLA     -0.123800
     17 CHB        79.9646   60.0635   38.2702 aa         1 CLA     -0.291900
     18 CHC        77.0998   60.2623   42.1991 aa         1 CLA     -0.090400
     19 CHD        73.5482   57.9973   39.7679 aa         1 CLA     -0.052000
     20 CMA        81.4491   58.0418   36.6524 a3         1 CLA     -0.230700
     21 CMB        81.3497   62.2507   40.2463 a3         1 CLA     -0.180800
     22 CMC        74.9044   59.8619   44.3587 a3         1 CLA     -0.134000
     23 CMD        71.9741   56.3304   37.1635 a3         1 CLA     -0.141100
     24 C1         81.3461   54.7604   33.6995 a2         1 CLA      0.023000
     25 C1A        77.8067   58.1250   36.2033 ac         1 CLA     -0.015100
     26 C1B        79.4160   60.4750   39.4871 cr         1 CLA      0.054700
     27 C1C        75.8800   59.7383   41.9248 cn         1 CLA     -0.005600
     28 C1D        73.9883   57.6634   38.4092 ap         1 CLA     -0.047300
     29 O1A        80.5674   56.2259   31.5773 o2         1 CLA     -0.610800
     30 O1D        77.6497   55.4852   33.0921 o2         1 CLA     -0.558200
     31 C2         81.6790   54.1978   35.0027 c8         1 CLA     -0.325100
     32 C2A        79.1228   57.9275   35.3783 a1         1 CLA      0.098600
     33 C2B        80.0950   61.3641   40.5108 cb         1 CLA      0.088500
     34 C2C        74.8097   59.4570   42.8965 cb         1 CLA      0.053700
     35 C2D        73.3601   56.8505   37.3553 cb         1 CLA      0.058900
     36 O2A        81.0790   56.1800   33.7965 o1         1 CLA     -0.437200
     37 O2D        76.8645   54.2714   34.8629 o1         1 CLA     -0.357600
     38 C3         82.5181   53.2135   35.3128 c5         1 CLA      0.031200
     39 C3A        80.1602   58.7593   36.1652 a1         1 CLA      0.166800
     40 C3B        79.4093   61.2957   41.7272 cb         1 CLA      0.035000
     41 C3C        73.8503   58.7071   42.2203 cb         1 CLA     -0.089900
     42 C3D        74.3820   56.6579   36.4062 cb         1 CLA     -0.035900
     43 C4         82.0178   51.7817   35.4352 a3         1 CLA     -0.053300
     44 C4A        79.3464   59.3211   37.2714 ac         1 CLA      0.001800
     45 C4B        78.1609   60.5959   41.3457 cn         1 CLA     -0.020900
     46 C4C        74.2702   58.6589   40.8032 cr         1 CLA     -0.044400
     47 C4D        75.5054   57.4215   36.8395 c6         1 CLA     -0.046000
     48 C5         84.0138   53.4881   35.1632 a2         1 CLA     -0.070400
     49 C6         84.5484   54.9239   35.5997 a2         1 CLA      0.043900
     50 C7         84.4712   55.1374   37.1437 a2         1 CLA     -0.150000
     51 C8         84.8387   56.5318   37.6662 a1         1 CLA      0.064200
     52 C9         86.2258   56.9975   37.2262 a3         1 CLA     -0.259300
     53 C10        84.7921   56.4760   39.1952 a2         1 CLA     -0.071900
     54 C11        83.4111   56.7040   39.8854 a2         1 CLA      0.014500
     55 C12        83.5907   56.9686   41.4599 a2         1 CLA     -0.112100
     56 C13        82.3235   57.3543   42.2102 a1         1 CLA      0.089200
     57 C14        81.8624   58.8025   41.8694 a3         1 CLA     -0.239100
     58 C15        82.5012   57.1547   43.7817 a2         1 CLA     -0.102200
     59 C16        83.7140   57.8560   44.3589 a2         1 CLA      0.023900
     60 C17        83.6560   57.7542   45.8908 a2         1 CLA     -0.105700
     61 C18        84.7043   58.4603   46.7944 a1         1 CLA      0.206800
     62 C19        84.9055   59.9603   46.4493 a3         1 CLA     -0.280100
     63 C20        84.2473   58.2494   48.2956 a3         1 CLA     -0.280100
     64 NC         75.4512   59.2724   40.6801 nx         1 CLA     -0.309200
     65 MG         76.6286   59.2990   38.8750 mg         1 CLA      0.895000
     66 HMD3       72.1412   55.4724   36.4747 dc         1 CLA      0.064300
     67 HMD2       71.6870   56.0781   38.1799 dc         1 CLA      0.064300
     68 HMD1       71.4514   57.1232   36.7738 dc         1 CLA      0.064300
     69 HMC3       75.3587   60.8524   44.3772 dc         1 CLA      0.052100
     70 HMC2       73.9381   59.8516   44.7649 dc         1 CLA      0.052100
     71 HMC1       75.4776   59.1821   44.9817 dc         1 CLA      0.052100
     72 HMB3       81.2808   62.5980   39.2226 dc         1 CLA      0.063600
     73 HMB2       81.3831   63.0621   40.8991 dc         1 CLA      0.063600
     74 HMB1       82.2170   61.6498   40.4426 dc         1 CLA      0.063600
     75 HMA3       81.9541   57.4901   35.8266 dc         1 CLA      0.058300
     76 HMA2       82.1428   58.7527   37.1066 dc         1 CLA      0.058300
     77 HMA1       81.1279   57.3822   37.4712 dc         1 CLA      0.058300
     78 HED3       77.2818   52.1964   34.6452 dc         1 CLA      0.079300
     79 HED2       77.7674   53.0453   33.3082 dc         1 CLA      0.079300
     80 HED1       78.6550   53.3437   34.8891 dc         1 CLA      0.079300
     81 HBC3       73.7621   56.3866   43.0814 dc         1 CLA      0.016300
     82 HBC2       72.0773   56.1237   43.5096 dc         1 CLA      0.016300
     83 HBC1       72.5960   56.1634   41.8619 dc         1 CLA      0.016300
     84 HBB2       81.1055   62.2784   44.5938 da         1 CLA      0.183000
     85 HBB1       81.7123   61.4282   43.0645 da         1 CLA      0.183000
     86 HBA2       80.1899   58.6813   32.0994 dc         1 CLA      0.029400
     87 HBA1       81.1312   58.6633   33.4416 dc         1 CLA      0.029400
     88 HAC2       72.3225   58.3563   43.7514 dc         1 CLA      0.029300
     89 HAC1       71.8021   58.2530   41.9688 dc         1 CLA      0.029300
     90 HAA2       78.1381   57.7718   33.5910 dc         1 CLA      0.028700
     91 HAA1       78.6343   59.3939   34.0173 dc         1 CLA      0.028700
     92 H203       84.2248   57.1322   48.4948 dc         1 CLA      0.065600
     93 H202       84.9498   58.7547   48.9922 dc         1 CLA      0.065600
     94 H201       83.2836   58.7050   48.4487 dc         1 CLA      0.065600
     95 H193       85.6422   60.3305   47.1542 dc         1 CLA      0.065600
     96 H192       85.2755   60.1855   45.4323 dc         1 CLA      0.065600
     97 H191       84.0754   60.6353   46.5169 dc         1 CLA      0.065600
     98 H172       82.7098   58.1977   46.1826 dc         1 CLA      0.027600
     99 H171       83.5662   56.7294   46.2200 dc         1 CLA      0.027600
    100 H162       84.5839   57.3034   44.0742 dc         1 CLA      0.002900
    101 H161       83.8547   58.8723   44.0374 dc         1 CLA      0.002900
    102 H152       81.5467   57.6154   44.1407 dc         1 CLA      0.029100
    103 H151       82.4489   56.0884   44.0644 dc         1 CLA      0.029100
    104 H143       81.5812   58.8202   40.7604 dc         1 CLA      0.063600
    105 H142       80.9148   58.9283   42.3469 dc         1 CLA      0.063600
    106 H141       82.6576   59.5600   42.1209 dc         1 CLA      0.063600
    107 H122       84.0907   56.1464   41.9823 dc         1 CLA      0.032500
    108 H121       84.2891   57.8095   41.5204 dc         1 CLA      0.032500
    109 H112       82.8697   57.5092   39.4300 dc         1 CLA      0.006600
    110 H111       82.7824   55.7946   39.6751 dc         1 CLA      0.006600
    111 H102       85.2182   55.5448   39.5715 dc         1 CLA      0.024100
    112 H101       85.3480   57.3036   39.5796 dc         1 CLA      0.024100
    113 HHD        72.5939   57.5260   40.0375 da         1 CLA      0.174300
    114 HHC        77.2716   60.5659   43.2663 da         1 CLA      0.136800
    115 HHB        81.0279   60.3516   38.1905 da         1 CLA      0.138300
    116 HBD        75.9307   57.4272   33.9212 dc         1 CLA      0.107700
    117 HAB        78.8934   62.3113   43.6078 da         1 CLA      0.155200
    118 H93        86.8914   56.1999   37.5871 dc         1 CLA      0.069500
    119 H92        86.3033   57.1160   36.0975 dc         1 CLA      0.069500
    120 H91        86.5033   57.9314   37.7620 dc         1 CLA      0.069500
    121 H8         84.1812   57.3102   37.2819 dc         1 CLA      0.029300
    122 H72        83.3779   54.9389   37.3594 dc         1 CLA      0.044400
    123 H71        85.0583   54.3079   37.6493 dc         1 CLA      0.044400
    124 H62        85.5674   55.0015   35.2832 dc         1 CLA      0.015600
    125 H61        83.8649   55.6913   35.2020 dc         1 CLA      0.015600
    126 H52        84.6165   52.7486   35.7026 dc         1 CLA      0.033200
    127 H51        84.1483   53.4267   34.0315 dc         1 CLA      0.033200
    128 H43        81.1554   51.5637   34.8208 dc         1 CLA      0.037000
    129 H42        82.8439   51.2776   34.9501 dc         1 CLA      0.037000
    130 H41        81.9868   51.4252   36.4462 dc         1 CLA      0.037000
    131 H3A        80.4971   59.6035   35.5697 dc         1 CLA      0.041100
    132 H2A        79.4997   56.8836   35.2957 dc         1 CLA      0.083100
    133 H2         81.1920   54.8299   35.7641 da         1 CLA      0.180900
    134 H18        85.6382   57.9653   46.7578 dc         1 CLA     -0.003900
    135 H13        81.5025   56.6755   41.9406 dc         1 CLA      0.019700
    136 H12        80.3611   54.3903   33.3576 dc         1 CLA      0.120400
    137 H11        82.0852   54.4585   32.9744 dc         1 CLA      0.120400
    138 C1         68.7754   60.7618   49.8963 Z1         2 LUT      0.509236
    139 C2         68.4600   61.5403   51.2055 Z2         2 LUT     -0.434695
    140 C3         66.9871   62.0258   51.2462 Z3         2 LUT      0.437453
    141 O3         66.8089   62.8278   52.3834 S1         2 LUT     -0.547129
    142 C4         66.9257   63.0486   50.0643 Z4         2 LUT     -0.468603
    143 C5         67.4450   62.5240   48.7363 Z5         2 LUT      0.279246
    144 C6         68.3348   61.5186   48.6289 Z6         2 LUT     -0.305473
    145 C7         68.9750   61.1882   47.3663 Z7         2 LUT      0.069402
    146 C8         69.9428   61.9676   46.8046 Z8         2 LUT     -0.191631
    147 C9         70.5830   61.8962   45.4974 Z9         2 LUT      0.196698
    148 C10        71.5514   62.6860   45.0577 Y1         2 LUT     -0.208611
    149 C11        72.3128   62.7168   43.9006 Y2         2 LUT      0.030784
    150 C12        73.4202   63.4708   43.6608 Y3         2 LUT     -0.220316
    151 C13        74.3329   63.5004   42.4846 Y4         2 LUT      0.215937
    152 C14        75.4899   64.2386   42.6346 Y5         2 LUT     -0.185793
    153 C15        76.5367   64.4018   41.6438 Y6         2 LUT     -0.057835
    154 C16        68.3141   59.2939   49.9252 Y7         2 LUT     -0.405615
    155 C17        70.2883   60.5241   49.8610 Y7         2 LUT     -0.405615
    156 C18        67.0233   63.4651   47.6020 Y9         2 LUT     -0.369639
    157 C19        70.0624   60.7345   44.6027 W1         2 LUT     -0.333362
    158 C20        74.0010   62.6534   41.2810 W2         2 LUT     -0.323439
    159 C21        87.3815   65.7379   34.9104 Z1         2 LUT      0.406104
    160 C22        88.2029   65.2847   33.7253 Z2         2 LUT     -0.404965
    161 C23        88.5509   66.3369   32.7459 Z3         2 LUT      0.391255
    162 O23        89.1860   65.6241   31.5814 S1         2 LUT     -0.528210
    163 C24        87.4540   67.2646   32.4507 W6         2 LUT     -0.258361
    164 C25        86.2766   67.2562   33.1118 Z5         2 LUT      0.133546
    165 C26        86.0508   66.2649   34.2642 W8         2 LUT     -0.147008
    166 C27        85.1593   66.7902   35.3483 Z7         2 LUT      0.023843
    167 C28        84.1994   66.0824   36.0525 Z8         2 LUT     -0.216987
    168 C29        83.5806   66.5665   37.2946 Z9         2 LUT      0.206524
    169 C30        82.5853   65.7590   37.7968 Y1         2 LUT     -0.215556
    170 C31        81.8436   66.0381   39.0134 Y2         2 LUT      0.025142
    171 C32        80.7293   65.3792   39.4303 Y3         2 LUT     -0.212209
    172 C33        79.8488   65.6646   40.5544 Y4         2 LUT      0.240937
    173 C34        78.6538   64.9953   40.6962 Y5         2 LUT     -0.218862
    174 C35        77.7806   64.9460   41.8193 Y6         2 LUT     -0.023547
    175 C36        88.2085   66.7506   35.7043 Y7         2 LUT     -0.393485
    176 C37        87.2836   64.4533   35.8366 Y7         2 LUT     -0.393485
    177 C38        85.0579   68.0625   32.6788 Y9         2 LUT     -0.387526
    178 C39        84.0330   67.8501   37.9475 W1         2 LUT     -0.322618
    179 C40        80.4215   66.5940   41.6093 W2         2 LUT     -0.358472
    180 H403       81.0168   66.1444   42.3354 R7         2 LUT      0.097720
    181 H402       81.1470   67.3516   41.2181 R7         2 LUT      0.097720
    182 H401       79.6621   67.1327   42.2189 R7         2 LUT      0.097720
    183 H393       84.5617   68.5665   37.2878 R4         2 LUT      0.082505
    184 H392       83.2893   68.3766   38.5081 R4         2 LUT      0.082505
    185 H391       84.8716   67.7137   38.6111 R4         2 LUT      0.082505
    186 H383       85.3126   68.5817   31.7980 R1         2 LUT      0.104030
    187 H382       84.1143   67.5618   32.6168 R1         2 LUT      0.104030
    188 H381       84.8710   68.8376   33.3770 R1         2 LUT      0.104030
    189 H373       86.7227   64.7386   36.7630 T4         2 LUT      0.089537
    190 H372       86.6588   63.5916   35.3749 T4         2 LUT      0.089537
    191 H371       88.2632   63.9740   36.0861 T4         2 LUT      0.089537
    192 H363       87.6143   67.0725   36.5707 T4         2 LUT      0.089537
    193 H362       89.1492   66.2953   36.0168 T4         2 LUT      0.089537
    194 H361       88.4566   67.6889   35.1757 T4         2 LUT      0.089537
    195 H222       89.0708   64.7713   34.0704 U2         2 LUT      0.127376
    196 H221       87.6922   64.6386   33.0637 U2         2 LUT      0.127376
    197 H203       73.1685   63.0607   40.7900 R7         2 LUT      0.087068
    198 H202       74.7619   62.6787   40.5113 R7         2 LUT      0.087068
    199 H201       73.8621   61.6178   41.5361 R7         2 LUT      0.087068
    200 H193       68.9773   60.6742   44.4388 R4         2 LUT      0.089716
    201 H192       70.4012   60.8297   43.5969 R4         2 LUT      0.089716
    202 H191       70.3099   59.7298   44.9626 R4         2 LUT      0.089716
    203 H183       67.4226   64.4455   47.7198 R1         2 LUT      0.094572
    204 H182       67.2312   63.0950   46.6094 R1         2 LUT      0.094572
    205 H181       65.9335   63.7277   47.6526 R1         2 LUT      0.094572
    206 H173       70.5695   59.9165   50.6986 T4         2 LUT      0.093752
    207 H172       70.5483   59.9911   48.9255 T4         2 LUT      0.093752
    208 H171       70.9378   61.3508   50.0442 T4         2 LUT      0.093752
    209 H163       68.7368   58.7010   49.0596 T4         2 LUT      0.093752
    210 H162       68.5365   58.6908   50.8090 T4         2 LUT      0.093752
    211 H161       67.2922   59.2290   49.8517 T4         2 LUT      0.093752
    212 HO3        66.7772   62.2475   53.1988 Q1         2 LUT      0.300121
    213 H8         70.4459   62.7403   47.4812 U7         2 LUT      0.080784
    214 H7         68.4126   60.5248   46.7478 U6         2 LUT      0.042190
    215 H42        65.8575   63.3918   50.0089 U5         2 LUT      0.145166
    216 H41        67.4911   64.0295   50.2061 U5         2 LUT      0.145166
    217 H35        77.8972   65.3684   42.8108 T3         2 LUT      0.077919
    218 H34        78.5324   64.2170   39.9823 T2         2 LUT      0.073626
    219 H32        80.3461   64.7067   38.6808 T1         2 LUT      0.092510
    220 H31        82.3310   66.7229   39.6728 U9         2 LUT      0.070048
    221 H30        82.2912   64.8847   37.2749 U8         2 LUT      0.085442
    222 H3         66.3042   61.1580   51.1353 U3         2 LUT     -0.031596
    223 H28        83.9069   65.1256   35.5839 U7         2 LUT      0.084728
    224 H27        85.3588   67.8107   35.6893 U6         2 LUT      0.087291
    225 H26        85.6356   65.4013   33.6673 Q6         2 LUT      0.075325
    226 H24        87.6378   67.9190   31.5925 Q5         2 LUT      0.094482
    227 H23        89.4731   66.8127   33.2596 U3         2 LUT     -0.024869
    228 H22        68.5954   60.8390   52.0464 U2         2 LUT      0.127376
    229 H21        69.1563   62.3435   51.3468 U2         2 LUT      0.127376
    230 H15        76.4310   63.9231   40.6591 T3         2 LUT      0.093200
    231 H14        75.6930   64.7034   43.5781 T2         2 LUT      0.068865
    232 H12        73.6961   64.0967   44.4671 T1         2 LUT      0.095507
    233 H11        72.0346   61.9547   43.2166 U9         2 LUT      0.068930
    234 H10        71.7745   63.4762   45.7793 U8         2 LUT      0.083911
    235 H1         88.6066   65.3640   30.8853 Q1         2 LUT      0.297311
@<TRIPOS>BOND
    1     6     1 1
    2     7     2 1
    3     8     3 1
    4     9     4 1
    5    11     4 1
    6    12     6 1
    7    13     9 1
    8    16     9 1
    9    25     5 1
   10    25    16 1
   11    26    10 1
   12    26    17 1
   13    27    18 1
   14    28    14 1
   15    28    19 1
   16    29    12 1
   17    30    13 1
   18    31    24 1
   19    32     1 1
   20    32    25 1
   21    33    21 1
   22    33    26 1
   23    34    22 1
   24    34    27 1
   25    35    23 1
   26    35    28 1
   27    36    12 1
   28    36    24 1
   29    37    13 1
   30    37    15 1
   31    38    31 1
   32    39    20 1
   33    39    32 1
   34    40     2 1
   35    40    33 1
   36    41     3 1
   37    41    34 1
   38    42     4 1
   39    42    35 1
   40    43    38 1
   41    44     5 1
   42    44    17 1
   43    44    39 1
   44    45    10 1
   45    45    18 1
   46    45    40 1
   47    46    19 1
   48    46    41 1
   49    47    14 1
   50    47    16 1
   51    47    42 1
   52    48    38 1
   53    49    48 1
   54    50    49 1
   55    51    50 1
   56    52    51 1
   57    53    51 1
   58    54    53 1
   59    55    54 1
   60    56    55 1
   61    57    56 1
   62    58    56 1
   63    59    58 1
   64    60    59 1
   65    61    60 1
   66    62    61 1
   67    63    61 1
   68    64    27 1
   69    64    46 1
   70    65     5 1
   71    65    10 1
   72    65    64 1
   73    65    14 1
   74    66    23 1
   75    67    23 1
   76    68    23 1
   77    69    22 1
   78    70    22 1
   79    71    22 1
   80    72    21 1
   81    73    21 1
   82    74    21 1
   83    75    20 1
   84    76    20 1
   85    77    20 1
   86    78    15 1
   87    79    15 1
   88    80    15 1
   89    81     8 1
   90    82     8 1
   91    83     8 1
   92    84     7 1
   93    85     7 1
   94    86     6 1
   95    87     6 1
   96    88     3 1
   97    89     3 1
   98    90     1 1
   99    91     1 1
  100    92    63 1
  101    93    63 1
  102    94    63 1
  103    95    62 1
  104    96    62 1
  105    97    62 1
  106    98    60 1
  107    99    60 1
  108   100    59 1
  109   101    59 1
  110   102    58 1
  111   103    58 1
  112   104    57 1
  113   105    57 1
  114   106    57 1
  115   107    55 1
  116   108    55 1
  117   109    54 1
  118   110    54 1
  119   111    53 1
  120   112    53 1
  121   113    19 1
  122   114    18 1
  123   115    17 1
  124   116     9 1
  125   117     2 1
  126   118    52 1
  127   119    52 1
  128   120    52 1
  129   121    51 1
  130   122    50 1
  131   123    50 1
  132   124    49 1
  133   125    49 1
  134   126    48 1
  135   127    48 1
  136   128    43 1
  137   129    43 1
  138   130    43 1
  139   131    39 1
  140   132    32 1
  141   133    31 1
  142   134    61 1
  143   135    56 1
  144   136    24 1
  145   137    24 1
  146   139   138 1
  147   140   139 1
  148   141   140 1
  149   142   140 1
  150   143   142 1
  151   144   138 1
  152   144   143 1
  153   145   144 1
  154   146   145 1
  155   147   146 1
  156   148   147 1
  157   149   148 1
  158   150   149 1
  159   151   150 1
  160   152   151 1
  161   153   152 1
  162   154   138 1
  163   155   138 1
  164   156   143 1
  165   157   147 1
  166   158   151 1
  167   160   159 1
  168   161   160 1
  169   162   161 1
  170   163   161 1
  171   164   163 1
  172   165   159 1
  173   165   164 1
  174   166   165 1
  175   167   166 1
  176   168   167 1
  177   169   168 1
  178   170   169 1
  179   171   170 1
  180   172   171 1
  181   173   172 1
  182   174   153 1
  183   174   173 1
  184   175   159 1
  185   176   159 1
  186   177   164 1
  187   178   168 1
  188   179   172 1
  189   180   179 1
  190   181   179 1
  191   182   179 1
  192   183   178 1
  193   184   178 1
  194   185   178 1
  195   186   177 1
  196   187   177 1
  197   188   177 1
  198   189   176 1
  199   190   176 1
  200   191   176 1
  201   192   175 1
  202   193   175 1
  203   194   175 1
  204   195   160 1
  205   196   160 1
  206   197   158 1
  207   198   158 1
  208   199   158 1
  209   200   157 1
  210   201   157 1
  211   202   157 1
  212   203   156 1
  213   204   156 1
  214   205   156 1
  215   206   155 1
  216   207   155 1
  217   208   155 1
  218   209   154 1
  219   210   154 1
  220   211   154 1
  221   212   141 1
  222   213   146 1
  223   214   145 1
  224   215   142 1
  225   216   142 1
  226   217   174 1
  227   218   173 1
  228   219   171 1
  229   220   170 1
  230   221   169 1
  231   222   140 1
  232   223   167 1
  233   224   166 1
  234   225   165 1
  235   226   163 1
  236   227   161 1
  237   228   139 1
  238   229   139 1
  239   230   153 1
  240   231   152 1
  241   232   150 1
  242   233   149 1
  243   234   148 1
  244   235   162 1
  245   65    153 1
  246   65    174 1
@<TRIPOS>SUBSTRUCTURE
      1 CLA               1 ****               0 ****  **** 
      2 LUT             138 ****               0 ****  **** 
