@<TRIPOS>MOLECULE
Cpptraj generated mol2 file.
  235   246     2     0     0
SMALL
USER_CHARGES


@<TRIPOS>ATOM
      1 CAA        78.3122   57.2445   33.5445 a2         1 CLA     -0.055900
      2 CAB        78.8093   61.3664   42.4428 c8         1 CLA     -0.148500
      3 CAC        71.7288   57.4721   42.3642 a2         1 CLA     -0.012600
      4 CAD        73.8123   55.2601   34.7456 ck         1 CLA      0.398800
      5 NA         77.2640   57.8756   36.9039 ns         1 CLA     -0.225500
      6 CBA        79.4947   56.7470   32.7250 a2         1 CLA     -0.135000
      7 CBB        78.6872   60.8397   43.6978 c0         1 CLA     -0.395200
      8 CBC        71.8231   55.9589   42.5489 a3         1 CLA     -0.037700
      9 CBD        75.2805   55.6655   34.4409 a1         1 CLA     -0.053900
     10 NB         77.4285   59.4097   39.5696 nm         1 CLA     -0.295700
     11 OBD        73.1384   54.6451   33.9302 o2         1 CLA     -0.494600
     12 CGA        79.6622   55.1884   32.5307 c4         1 CLA      0.827000
     13 CGD        76.1149   54.3600   34.3022 c4         1 CLA      0.655300
     14 ND         74.3272   57.3049   37.5861 nm         1 CLA     -0.291600
     15 CED        76.8360   52.4043   35.4953 a3         1 CLA      0.005400
     16 CHA        75.7241   56.5836   35.6241 cs         1 CLA     -0.123800
     17 CHB        79.2066   58.8783   38.0321 aa         1 CLA     -0.291900
     18 CHC        76.0705   59.9314   41.5287 aa         1 CLA     -0.090400
     19 CHD        72.7399   57.1033   39.4234 aa         1 CLA     -0.052000
     20 CMA        80.6026   56.4899   36.3807 a3         1 CLA     -0.230700
     21 CMB        80.9197   60.9071   40.0464 a3         1 CLA     -0.180800
     22 CMC        73.8202   59.2962   43.7892 a3         1 CLA     -0.134000
     23 CMD        71.1615   55.4992   37.1496 a3         1 CLA     -0.141100
     24 C1         80.2586   53.0924   33.6329 a2         1 CLA      0.023000
     25 C1A        77.0193   57.1113   35.7940 ac         1 CLA     -0.015100
     26 C1B        78.6492   59.6153   39.1313 cr         1 CLA      0.054700
     27 C1C        74.9130   59.1977   41.4058 cn         1 CLA     -0.005600
     28 C1D        73.1631   56.7774   38.0934 ap         1 CLA     -0.047300
     29 O1A        79.3165   54.4939   31.5618 o2         1 CLA     -0.610800
     30 O1D        76.8655   54.0149   33.3910 o2         1 CLA     -0.558200
     31 C2         80.6254   52.4815   34.9890 c8         1 CLA     -0.325100
     32 C2A        78.3062   56.8081   35.0082 a1         1 CLA      0.098600
     33 C2B        79.4108   60.5043   40.0888 cb         1 CLA      0.088500
     34 C2C        73.9263   58.8723   42.3781 cb         1 CLA      0.053700
     35 C2D        72.5043   56.0316   37.0495 cb         1 CLA      0.058900
     36 O2A        80.2532   54.6056   33.6506 o1         1 CLA     -0.437200
     37 O2D        76.0594   53.6432   35.4475 o1         1 CLA     -0.357600
     38 C3         81.4392   51.3975   35.2492 c5         1 CLA      0.031200
     39 C3A        79.4392   57.4574   35.8913 a1         1 CLA      0.166800
     40 C3B        78.4882   60.6851   41.2057 cb         1 CLA      0.035000
     41 C3C        72.9777   58.0308   41.7798 cb         1 CLA     -0.089900
     42 C3D        73.4539   55.8688   36.0691 cb         1 CLA     -0.035900
     43 C4         80.9157   49.9908   35.3499 a3         1 CLA     -0.053300
     44 C4A        78.6063   58.1011   37.0224 ac         1 CLA      0.001800
     45 C4B        77.2156   60.0364   40.8080 cn         1 CLA     -0.020900
     46 C4C        73.4326   57.8680   40.4326 cr         1 CLA     -0.044400
     47 C4D        74.5615   56.6408   36.4325 c6         1 CLA     -0.046000
     48 C5         82.9396   51.6009   35.2436 a2         1 CLA     -0.070400
     49 C6         83.6199   52.8441   35.8899 a2         1 CLA      0.043900
     50 C7         83.6532   52.8992   37.4395 a2         1 CLA     -0.150000
     51 C8         84.4548   54.0639   38.0800 a1         1 CLA      0.064200
     52 C9         86.0444   53.9955   37.7833 a3         1 CLA     -0.259300
     53 C10        84.1328   54.0831   39.6304 a2         1 CLA     -0.071900
     54 C11        82.7544   54.5473   39.9880 a2         1 CLA      0.014500
     55 C12        82.7185   55.1227   41.4548 a2         1 CLA     -0.112100
     56 C13        81.4285   55.8137   41.8808 a1         1 CLA      0.089200
     57 C14        81.0548   56.8554   40.8381 a3         1 CLA     -0.239100
     58 C15        81.4376   56.4761   43.2889 a2         1 CLA     -0.102200
     59 C16        82.3925   57.6709   43.5453 a2         1 CLA      0.023900
     60 C17        82.3962   58.0816   45.0600 a2         1 CLA     -0.105700
     61 C18        83.0847   59.4020   45.4027 a1         1 CLA      0.206800
     62 C19        82.5941   59.9296   46.8089 a3         1 CLA     -0.280100
     63 C20        84.5877   59.2504   45.2699 a3         1 CLA     -0.280100
     64 NC         74.6031   58.5294   40.2659 nx         1 CLA     -0.309200
     65 MG         75.8576   58.4354   38.4432 mg         1 CLA      0.895000
     66 HMD3       71.1712   54.6083   36.5467 dc         1 CLA      0.064300
     67 HMD2       70.8709   55.2106   38.0851 dc         1 CLA      0.064300
     68 HMD1       70.4594   56.2455   36.7803 dc         1 CLA      0.064300
     69 HMC3       72.8036   59.8629   43.8894 dc         1 CLA      0.052100
     70 HMC2       73.8196   58.3651   44.3589 dc         1 CLA      0.052100
     71 HMC1       74.7162   59.8733   44.0903 dc         1 CLA      0.052100
     72 HMB3       81.3924   60.7490   39.0687 dc         1 CLA      0.063600
     73 HMB2       81.0140   61.9147   40.2923 dc         1 CLA      0.063600
     74 HMB1       81.3952   60.3794   40.8092 dc         1 CLA      0.063600
     75 HMA3       80.1964   55.9140   37.2218 dc         1 CLA      0.058300
     76 HMA2       80.9415   55.7570   35.6112 dc         1 CLA      0.058300
     77 HMA1       81.4626   57.0643   36.8152 dc         1 CLA      0.058300
     78 HED3       76.5351   51.7614   34.6413 dc         1 CLA      0.079300
     79 HED2       77.8716   52.5844   35.4921 dc         1 CLA      0.079300
     80 HED1       76.5163   51.9507   36.3869 dc         1 CLA      0.079300
     81 HBC3       72.7742   55.5722   42.7687 dc         1 CLA      0.016300
     82 HBC2       71.0783   55.5712   43.3360 dc         1 CLA      0.016300
     83 HBC1       71.5382   55.4682   41.6376 dc         1 CLA      0.016300
     84 HBB2       79.1391   61.3524   44.5640 da         1 CLA      0.183000
     85 HBB1       78.3409   59.8202   43.8220 da         1 CLA      0.183000
     86 HBA2       79.2385   57.1434   31.7149 dc         1 CLA      0.029400
     87 HBA1       80.4270   57.0960   33.1417 dc         1 CLA      0.029400
     88 HAC2       71.5472   57.7950   43.3762 dc         1 CLA      0.029300
     89 HAC1       70.8480   57.7415   41.7533 dc         1 CLA      0.029300
     90 HAA2       77.4126   56.8672   33.0758 dc         1 CLA      0.028700
     91 HAA1       78.1716   58.3298   33.3933 dc         1 CLA      0.028700
     92 H203       84.7359   58.8448   44.2411 dc         1 CLA      0.065600
     93 H202       85.2560   60.0835   45.3143 dc         1 CLA      0.065600
     94 H201       84.9444   58.5495   45.9902 dc         1 CLA      0.065600
     95 H193       83.2029   60.8200   47.0232 dc         1 CLA      0.065600
     96 H192       81.5119   60.1286   46.6615 dc         1 CLA      0.065600
     97 H191       82.7575   59.0341   47.5140 dc         1 CLA      0.065600
     98 H172       81.3405   58.2696   45.1595 dc         1 CLA      0.027600
     99 H171       82.8043   57.2886   45.6787 dc         1 CLA      0.027600
    100 H162       83.4190   57.4975   43.2424 dc         1 CLA      0.002900
    101 H161       81.9663   58.5760   42.9581 dc         1 CLA      0.002900
    102 H152       80.4392   56.6144   43.5478 dc         1 CLA      0.029100
    103 H151       81.7299   55.6734   44.0236 dc         1 CLA      0.029100
    104 H143       81.9229   57.4417   40.5080 dc         1 CLA      0.063600
    105 H142       80.6725   56.2680   40.0238 dc         1 CLA      0.063600
    106 H141       80.3698   57.5854   41.2330 dc         1 CLA      0.063600
    107 H122       83.1846   54.4602   42.1038 dc         1 CLA      0.032500
    108 H121       83.5124   55.8546   41.5010 dc         1 CLA      0.032500
    109 H112       82.5759   55.3918   39.3013 dc         1 CLA      0.006600
    110 H111       81.9237   53.8261   39.9021 dc         1 CLA      0.006600
    111 H102       84.2161   53.1195   40.1417 dc         1 CLA      0.024100
    112 H101       84.9039   54.6524   40.0972 dc         1 CLA      0.024100
    113 HHD        71.8365   56.7183   39.8278 da         1 CLA      0.174300
    114 HHC        76.0145   60.6627   42.3451 da         1 CLA      0.136800
    115 HHB        80.2559   58.9744   37.7705 da         1 CLA      0.138300
    116 HBD        75.2313   56.2330   33.5558 dc         1 CLA      0.107700
    117 HAB        79.1825   62.3756   42.1739 da         1 CLA      0.155200
    118 H93        86.1923   54.2148   36.7387 dc         1 CLA      0.069500
    119 H92        86.5568   54.6880   38.3979 dc         1 CLA      0.069500
    120 H91        86.4701   53.0033   37.9269 dc         1 CLA      0.069500
    121 H8         83.9163   54.9025   37.6181 dc         1 CLA      0.029300
    122 H72        82.6230   53.0284   37.7451 dc         1 CLA      0.044400
    123 H71        84.1638   51.9784   37.7637 dc         1 CLA      0.044400
    124 H62        84.6201   52.6945   35.4915 dc         1 CLA      0.015600
    125 H61        83.2873   53.7526   35.4751 dc         1 CLA      0.015600
    126 H52        83.4351   50.7764   35.7082 dc         1 CLA      0.033200
    127 H51        83.1220   51.5315   34.1620 dc         1 CLA      0.033200
    128 H43        81.4444   49.4014   34.5704 dc         1 CLA      0.037000
    129 H42        81.3095   49.6044   36.2579 dc         1 CLA      0.037000
    130 H41        79.8235   49.9287   35.3849 dc         1 CLA      0.037000
    131 H3A        79.9452   58.1407   35.1735 dc         1 CLA      0.041100
    132 H2A        78.3773   55.7240   35.0412 dc         1 CLA      0.083100
    133 H2         80.1846   53.1651   35.7448 da         1 CLA      0.180900
    134 H18        82.7215   60.1873   44.7211 dc         1 CLA     -0.003900
    135 H13        80.7027   54.9916   41.9630 dc         1 CLA      0.019700
    136 H12        79.2945   52.8430   33.4508 dc         1 CLA      0.120400
    137 H11        80.7927   52.7140   32.8223 dc         1 CLA      0.120400
    138 C1         68.2518   60.7603   48.8975 Z1         2 LUT      0.509236
    139 C2         66.9745   60.5003   49.6655 Z2         2 LUT     -0.434695
    140 C3         66.1851   61.7824   50.2812 Z3         2 LUT      0.437453
    141 O3         66.7729   62.2453   51.4909 S1         2 LUT     -0.547129
    142 C4         66.3825   62.9782   49.3086 Z4         2 LUT     -0.468603
    143 C5         66.9427   62.6730   47.9185 Z5         2 LUT      0.279246
    144 C6         67.8372   61.6796   47.7724 Z6         2 LUT     -0.305473
    145 C7         68.2389   61.1934   46.4130 Z7         2 LUT      0.069402
    146 C8         69.1252   61.6979   45.5465 Z8         2 LUT     -0.191631
    147 C9         69.6793   61.2212   44.2601 Z9         2 LUT      0.196698
    148 C10        70.7424   61.9194   43.7460 Y1         2 LUT     -0.208611
    149 C11        71.4393   61.7805   42.5313 Y2         2 LUT      0.030784
    150 C12        72.5356   62.5501   42.3158 Y3         2 LUT     -0.220316
    151 C13        73.5306   62.4962   41.1835 Y4         2 LUT      0.215937
    152 C14        74.7770   63.1029   41.4490 Y5         2 LUT     -0.185793
    153 C15        75.8617   63.1650   40.5667 Y6         2 LUT     -0.057835
    154 C16        68.8729   59.3318   48.5552 Y7         2 LUT     -0.405615
    155 C17        69.2254   61.5404   49.8337 Y7         2 LUT     -0.405615
    156 C18        66.3216   63.4972   46.8414 Y9         2 LUT     -0.369639
    157 C19        69.0279   60.0941   43.4748 W1         2 LUT     -0.333362
    158 C20        73.2138   61.6997   39.9358 W2         2 LUT     -0.323439
    159 C21        87.3634   64.1862   34.5622 Z1         2 LUT      0.406104
    160 C22        88.1202   63.7532   33.2884 Z2         2 LUT     -0.404965
    161 C23        88.2048   64.8346   32.2188 Z3         2 LUT      0.391255
    162 O23        88.7629   64.2505   31.0634 S1         2 LUT     -0.528210
    163 C24        86.7527   65.5546   31.9893 W6         2 LUT     -0.258361
    164 C25        85.8029   65.4370   32.8332 Z5         2 LUT      0.133546
    165 C26        85.9059   64.7184   34.1979 W8         2 LUT     -0.147008
    166 C27        85.2243   65.4251   35.3820 Z7         2 LUT      0.023843
    167 C28        84.1536   64.8867   36.0608 Z8         2 LUT     -0.216987
    168 C29        83.5481   65.3011   37.3288 Z9         2 LUT      0.206524
    169 C30        82.3861   64.7499   37.7370 Y1         2 LUT     -0.215556
    170 C31        81.5260   64.9726   38.9522 Y2         2 LUT      0.025142
    171 C32        80.3209   64.4381   39.1307 Y3         2 LUT     -0.212209
    172 C33        79.3391   64.5926   40.2051 Y4         2 LUT      0.240937
    173 C34        78.0591   64.0070   39.8968 Y5         2 LUT     -0.218862
    174 C35        76.9576   63.8929   40.7465 Y6         2 LUT     -0.023547
    175 C36        88.2695   65.1581   35.3558 Y7         2 LUT     -0.393485
    176 C37        87.2155   62.9071   35.2869 Y7         2 LUT     -0.393485
    177 C38        84.4394   66.0699   32.4849 Y9         2 LUT     -0.387526
    178 C39        84.3618   66.3061   38.0933 W1         2 LUT     -0.322618
    179 C40        79.5526   65.5387   41.3264 W2         2 LUT     -0.358472
    180 H403       79.9200   66.4953   41.0081 R7         2 LUT      0.097720
    181 H402       78.6355   65.6511   41.9065 R7         2 LUT      0.097720
    182 H401       80.1879   65.1634   42.1027 R7         2 LUT      0.097720
    183 H393       83.8769   66.3932   39.0726 R4         2 LUT      0.082505
    184 H392       85.4261   65.9932   38.2765 R4         2 LUT      0.082505
    185 H391       84.3372   67.2517   37.5946 R4         2 LUT      0.082505
    186 H383       83.8579   66.4939   33.2650 R1         2 LUT      0.104030
    187 H382       84.4132   66.9319   31.7973 R1         2 LUT      0.104030
    188 H381       83.7916   65.3397   32.0067 R1         2 LUT      0.104030
    189 H373       86.5787   62.1258   34.7623 T4         2 LUT      0.089537
    190 H372       88.1760   62.5200   35.4639 T4         2 LUT      0.089537
    191 H371       86.6982   63.0030   36.2039 T4         2 LUT      0.089537
    192 H363       89.2272   64.7039   35.6784 T4         2 LUT      0.089537
    193 H362       88.5796   66.0510   34.7376 T4         2 LUT      0.089537
    194 H361       87.8243   65.5722   36.2970 T4         2 LUT      0.089537
    195 H222       89.0939   63.3242   33.3434 U2         2 LUT      0.127376
    196 H221       87.4744   62.8375   32.9116 U2         2 LUT      0.127376
    197 H203       74.0839   61.5378   39.2751 R7         2 LUT      0.087068
    198 H202       72.8345   60.7148   40.0871 R7         2 LUT      0.087068
    199 H201       72.4371   62.2391   39.4297 R7         2 LUT      0.087068
    200 H193       69.6761   59.3738   42.9915 R4         2 LUT      0.089716
    201 H192       68.3642   59.4484   44.0804 R4         2 LUT      0.089716
    202 H191       68.4202   60.4311   42.6798 R4         2 LUT      0.089716
    203 H183       66.3219   62.9201   45.8656 R1         2 LUT      0.094572
    204 H182       65.2759   63.7909   47.1362 R1         2 LUT      0.094572
    205 H181       66.8994   64.4592   46.7349 R1         2 LUT      0.094572
    206 H173       70.2395   61.5952   49.4586 T4         2 LUT      0.093752
    207 H172       68.8060   62.5557   50.0377 T4         2 LUT      0.093752
    208 H171       69.3894   61.0663   50.7845 T4         2 LUT      0.093752
    209 H163       69.1890   58.7040   49.4075 T4         2 LUT      0.093752
    210 H162       68.3023   58.7798   47.7544 T4         2 LUT      0.093752
    211 H161       69.8177   59.6408   48.0634 T4         2 LUT      0.093752
    212 HO3        66.5166   61.5787   52.2076 Q1         2 LUT      0.300121
    213 H8         69.6414   62.5147   46.1072 U7         2 LUT      0.080784
    214 H7         67.8077   60.2313   46.1865 U6         2 LUT      0.042190
    215 H42        65.3743   63.4102   49.1771 U5         2 LUT      0.145166
    216 H41        66.8580   63.8873   49.6715 U5         2 LUT      0.145166
    217 H35        76.9709   64.4202   41.7203 T3         2 LUT      0.077919
    218 H34        77.9388   63.4448   39.0373 T2         2 LUT      0.073626
    219 H32        80.0325   63.8311   38.2218 T1         2 LUT      0.092510
    220 H31        81.9989   65.5505   39.6669 U9         2 LUT      0.070048
    221 H30        81.9526   63.9149   37.1021 U8         2 LUT      0.085442
    222 H3         65.1227   61.5360   50.3474 U3         2 LUT     -0.031596
    223 H28        83.5948   64.2126   35.4346 U7         2 LUT      0.084728
    224 H27        85.6747   66.2589   35.9355 U6         2 LUT      0.087291
    225 H26        85.3670   63.8223   33.9604 Q6         2 LUT      0.075325
    226 H24        86.6312   66.0588   31.0822 Q5         2 LUT      0.094482
    227 H23        88.9114   65.5484   32.5849 U3         2 LUT     -0.024869
    228 H22        66.1733   60.0566   49.0046 U2         2 LUT      0.127376
    229 H21        67.0948   59.8166   50.4629 U2         2 LUT      0.127376
    230 H15        75.8541   62.7093   39.6356 T3         2 LUT      0.093200
    231 H14        74.9955   63.5196   42.4805 T2         2 LUT      0.068865
    232 H12        72.7959   63.1947   43.2580 T1         2 LUT      0.095507
    233 H11        71.0996   60.9798   41.8498 U9         2 LUT      0.068930
    234 H10        71.0219   62.7773   44.3118 U8         2 LUT      0.083911
    235 H1         88.1243   63.7570   30.5244 Q1         2 LUT      0.297311
@<TRIPOS>BOND
    1     6     1 1
    2     7     2 1
    3     8     3 1
    4     9     4 1
    5    11     4 1
    6    12     6 1
    7    13     9 1
    8    16     9 1
    9    25     5 1
   10    25    16 1
   11    26    10 1
   12    26    17 1
   13    27    18 1
   14    28    14 1
   15    28    19 1
   16    29    12 1
   17    30    13 1
   18    31    24 1
   19    32     1 1
   20    32    25 1
   21    33    21 1
   22    33    26 1
   23    34    22 1
   24    34    27 1
   25    35    23 1
   26    35    28 1
   27    36    12 1
   28    36    24 1
   29    37    13 1
   30    37    15 1
   31    38    31 1
   32    39    20 1
   33    39    32 1
   34    40     2 1
   35    40    33 1
   36    41     3 1
   37    41    34 1
   38    42     4 1
   39    42    35 1
   40    43    38 1
   41    44     5 1
   42    44    17 1
   43    44    39 1
   44    45    10 1
   45    45    18 1
   46    45    40 1
   47    46    19 1
   48    46    41 1
   49    47    14 1
   50    47    16 1
   51    47    42 1
   52    48    38 1
   53    49    48 1
   54    50    49 1
   55    51    50 1
   56    52    51 1
   57    53    51 1
   58    54    53 1
   59    55    54 1
   60    56    55 1
   61    57    56 1
   62    58    56 1
   63    59    58 1
   64    60    59 1
   65    61    60 1
   66    62    61 1
   67    63    61 1
   68    64    27 1
   69    64    46 1
   70    65     5 1
   71    65    10 1
   72    65    64 1
   73    65    14 1
   74    66    23 1
   75    67    23 1
   76    68    23 1
   77    69    22 1
   78    70    22 1
   79    71    22 1
   80    72    21 1
   81    73    21 1
   82    74    21 1
   83    75    20 1
   84    76    20 1
   85    77    20 1
   86    78    15 1
   87    79    15 1
   88    80    15 1
   89    81     8 1
   90    82     8 1
   91    83     8 1
   92    84     7 1
   93    85     7 1
   94    86     6 1
   95    87     6 1
   96    88     3 1
   97    89     3 1
   98    90     1 1
   99    91     1 1
  100    92    63 1
  101    93    63 1
  102    94    63 1
  103    95    62 1
  104    96    62 1
  105    97    62 1
  106    98    60 1
  107    99    60 1
  108   100    59 1
  109   101    59 1
  110   102    58 1
  111   103    58 1
  112   104    57 1
  113   105    57 1
  114   106    57 1
  115   107    55 1
  116   108    55 1
  117   109    54 1
  118   110    54 1
  119   111    53 1
  120   112    53 1
  121   113    19 1
  122   114    18 1
  123   115    17 1
  124   116     9 1
  125   117     2 1
  126   118    52 1
  127   119    52 1
  128   120    52 1
  129   121    51 1
  130   122    50 1
  131   123    50 1
  132   124    49 1
  133   125    49 1
  134   126    48 1
  135   127    48 1
  136   128    43 1
  137   129    43 1
  138   130    43 1
  139   131    39 1
  140   132    32 1
  141   133    31 1
  142   134    61 1
  143   135    56 1
  144   136    24 1
  145   137    24 1
  146   139   138 1
  147   140   139 1
  148   141   140 1
  149   142   140 1
  150   143   142 1
  151   144   138 1
  152   144   143 1
  153   145   144 1
  154   146   145 1
  155   147   146 1
  156   148   147 1
  157   149   148 1
  158   150   149 1
  159   151   150 1
  160   152   151 1
  161   153   152 1
  162   154   138 1
  163   155   138 1
  164   156   143 1
  165   157   147 1
  166   158   151 1
  167   160   159 1
  168   161   160 1
  169   162   161 1
  170   163   161 1
  171   164   163 1
  172   165   159 1
  173   165   164 1
  174   166   165 1
  175   167   166 1
  176   168   167 1
  177   169   168 1
  178   170   169 1
  179   171   170 1
  180   172   171 1
  181   173   172 1
  182   174   153 1
  183   174   173 1
  184   175   159 1
  185   176   159 1
  186   177   164 1
  187   178   168 1
  188   179   172 1
  189   180   179 1
  190   181   179 1
  191   182   179 1
  192   183   178 1
  193   184   178 1
  194   185   178 1
  195   186   177 1
  196   187   177 1
  197   188   177 1
  198   189   176 1
  199   190   176 1
  200   191   176 1
  201   192   175 1
  202   193   175 1
  203   194   175 1
  204   195   160 1
  205   196   160 1
  206   197   158 1
  207   198   158 1
  208   199   158 1
  209   200   157 1
  210   201   157 1
  211   202   157 1
  212   203   156 1
  213   204   156 1
  214   205   156 1
  215   206   155 1
  216   207   155 1
  217   208   155 1
  218   209   154 1
  219   210   154 1
  220   211   154 1
  221   212   141 1
  222   213   146 1
  223   214   145 1
  224   215   142 1
  225   216   142 1
  226   217   174 1
  227   218   173 1
  228   219   171 1
  229   220   170 1
  230   221   169 1
  231   222   140 1
  232   223   167 1
  233   224   166 1
  234   225   165 1
  235   226   163 1
  236   227   161 1
  237   228   139 1
  238   229   139 1
  239   230   153 1
  240   231   152 1
  241   232   150 1
  242   233   149 1
  243   234   148 1
  244   235   162 1
  245   65    153 1
  246   65    174 1
@<TRIPOS>SUBSTRUCTURE
      1 CLA               1 ****               0 ****  **** 
      2 LUT             138 ****               0 ****  **** 
