@<TRIPOS>MOLECULE
Cpptraj generated mol2 file.
  235   246     2     0     0
SMALL
USER_CHARGES


@<TRIPOS>ATOM
      1 CAA        79.6250   59.1498   33.0010 a2         1 CLA     -0.055900
      2 CAB        79.7601   62.5159   42.1838 c8         1 CLA     -0.148500
      3 CAC        72.8180   58.7341   41.5507 a2         1 CLA     -0.012600
      4 CAD        75.6029   56.6498   34.0867 ck         1 CLA      0.398800
      5 NA         78.6704   59.6094   36.3332 ns         1 CLA     -0.225500
      6 CBA        80.9070   59.0856   32.1001 a2         1 CLA     -0.135000
      7 CBB        80.9563   62.6788   42.7933 c0         1 CLA     -0.395200
      8 CBC        72.6447   57.2524   41.5415 a3         1 CLA     -0.037700
      9 CBD        76.9742   57.2183   33.7521 a1         1 CLA     -0.053900
     10 NB         78.6096   60.8946   39.0573 nm         1 CLA     -0.295700
     11 OBD        74.9697   55.9560   33.2999 o2         1 CLA     -0.494600
     12 CGA        81.4916   57.7561   31.6923 c4         1 CLA      0.827000
     13 CGD        77.9586   56.0811   33.4010 c4         1 CLA      0.655300
     14 ND         75.9134   58.6767   36.9710 nm         1 CLA     -0.291600
     15 CED        78.6759   53.8692   33.9889 a3         1 CLA      0.005400
     16 CHA        77.3570   58.0864   34.9929 cs         1 CLA     -0.123800
     17 CHB        80.3884   60.9938   37.4163 aa         1 CLA     -0.291900
     18 CHC        77.3689   60.8207   41.1428 aa         1 CLA     -0.090400
     19 CHD        74.0859   58.3984   38.6029 aa         1 CLA     -0.052000
     20 CMA        82.1537   59.0596   35.6433 a3         1 CLA     -0.230700
     21 CMB        81.8166   62.9670   39.5117 a3         1 CLA     -0.180800
     22 CMC        75.2109   60.0631   43.2539 a3         1 CLA     -0.134000
     23 CMD        72.9531   56.5697   36.2891 a3         1 CLA     -0.141100
     24 C1         82.7220   55.9288   32.7199 a2         1 CLA      0.023000
     25 C1A        78.5505   58.7705   35.2625 ac         1 CLA     -0.015100
     26 C1B        79.8062   61.4015   38.6277 cr         1 CLA      0.054700
     27 C1C        76.2288   60.1989   40.7979 cn         1 CLA     -0.005600
     28 C1D        74.6267   58.1692   37.3134 ap         1 CLA     -0.047300
     29 O1A        81.3596   57.1592   30.6424 o2         1 CLA     -0.610800
     30 O1D        78.6855   56.0040   32.4314 o2         1 CLA     -0.558200
     31 C2         83.5318   55.8798   34.0594 c8         1 CLA     -0.325100
     32 C2A        79.8496   58.7201   34.4441 a1         1 CLA      0.098600
     33 C2B        80.4876   62.2115   39.6912 cb         1 CLA      0.088500
     34 C2C        75.1993   59.8091   41.7630 cb         1 CLA      0.053700
     35 C2D        74.1587   57.3303   36.2522 cb         1 CLA      0.058900
     36 O2A        82.1548   57.2509   32.7644 o1         1 CLA     -0.437200
     37 O2D        77.9249   55.0636   34.3480 o1         1 CLA     -0.357600
     38 C3         84.7209   55.2957   34.2854 c5         1 CLA      0.031200
     39 C3A        80.8180   59.6539   35.2288 a1         1 CLA      0.166800
     40 C3B        79.6375   61.9925   40.8246 cb         1 CLA      0.035000
     41 C3C        74.1955   59.1890   41.0227 cb         1 CLA     -0.089900
     42 C3D        75.2112   57.2708   35.3255 cb         1 CLA     -0.035900
     43 C4         84.7440   53.8528   34.7339 a3         1 CLA     -0.053300
     44 C4A        79.9892   60.0355   36.4713 ac         1 CLA      0.001800
     45 C4B        78.4344   61.2725   40.3404 cn         1 CLA     -0.020900
     46 C4C        74.6723   59.0712   39.6552 cr         1 CLA     -0.044400
     47 C4D        76.2379   58.0331   35.8252 c6         1 CLA     -0.046000
     48 C5         86.1212   55.9276   34.0420 a2         1 CLA     -0.070400
     49 C6         86.5718   57.0010   35.0676 a2         1 CLA      0.043900
     50 C7         86.4615   56.3745   36.4848 a2         1 CLA     -0.150000
     51 C8         86.8977   57.2975   37.7032 a1         1 CLA      0.064200
     52 C9         88.2496   57.8624   37.6324 a3         1 CLA     -0.259300
     53 C10        86.7044   56.5322   39.0536 a2         1 CLA     -0.071900
     54 C11        86.6269   57.6350   40.3096 a2         1 CLA      0.014500
     55 C12        86.0964   56.8879   41.5272 a2         1 CLA     -0.112100
     56 C13        86.1507   57.6384   42.9202 a1         1 CLA      0.089200
     57 C14        87.5682   57.3922   43.5877 a3         1 CLA     -0.239100
     58 C15        84.9631   57.2195   43.8330 a2         1 CLA     -0.102200
     59 C16        83.6384   57.8927   43.3909 a2         1 CLA      0.023900
     60 C17        82.4699   57.6629   44.4494 a2         1 CLA     -0.105700
     61 C18        81.0610   58.3377   44.2284 a1         1 CLA      0.206800
     62 C19        80.7866   58.5674   42.6860 a3         1 CLA     -0.280100
     63 C20        79.8404   57.5127   44.7923 a3         1 CLA     -0.280100
     64 NC         75.8976   59.6914   39.5574 nx         1 CLA     -0.309200
     65 MG         77.1174   59.8563   37.9246 mg         1 CLA      0.895000
     66 HMD3       72.6909   55.9612   37.1787 dc         1 CLA      0.064300
     67 HMD2       72.0724   57.2221   36.1406 dc         1 CLA      0.064300
     68 HMD1       72.9911   55.8854   35.4712 dc         1 CLA      0.064300
     69 HMC3       76.1158   60.3663   43.6911 dc         1 CLA      0.052100
     70 HMC2       74.5616   60.8752   43.3812 dc         1 CLA      0.052100
     71 HMC1       74.8080   59.2124   43.7746 dc         1 CLA      0.052100
     72 HMB3       82.0890   63.6388   40.2649 dc         1 CLA      0.063600
     73 HMB2       82.6220   62.3007   39.4484 dc         1 CLA      0.063600
     74 HMB1       81.7634   63.4231   38.5405 dc         1 CLA      0.063600
     75 HMA3       81.9183   58.1572   36.2036 dc         1 CLA      0.058300
     76 HMA2       82.6262   58.7475   34.7544 dc         1 CLA      0.058300
     77 HMA1       82.8111   59.5704   36.3513 dc         1 CLA      0.058300
     78 HED3       78.0502   53.3990   33.2451 dc         1 CLA      0.079300
     79 HED2       79.6573   54.1373   33.6774 dc         1 CLA      0.079300
     80 HED1       78.7116   53.2314   34.9034 dc         1 CLA      0.079300
     81 HBC3       73.4466   56.6965   42.1025 dc         1 CLA      0.016300
     82 HBC2       71.6236   57.0602   41.8655 dc         1 CLA      0.016300
     83 HBC1       72.6447   56.8832   40.5013 dc         1 CLA      0.016300
     84 HBB2       81.1339   63.1939   43.7428 da         1 CLA      0.183000
     85 HBB1       81.8651   62.2784   42.3021 da         1 CLA      0.183000
     86 HBA2       80.6479   59.5569   31.2063 dc         1 CLA      0.029400
     87 HBA1       81.7609   59.5966   32.5518 dc         1 CLA      0.029400
     88 HAC2       72.8327   58.8256   42.6195 dc         1 CLA      0.029300
     89 HAC1       72.0438   59.3164   40.9797 dc         1 CLA      0.029300
     90 HAA2       78.8529   58.5723   32.5025 dc         1 CLA      0.028700
     91 HAA1       79.2063   60.1633   33.0015 dc         1 CLA      0.028700
     92 H203       79.9017   57.5812   45.8908 dc         1 CLA      0.065600
     93 H202       78.8147   57.7855   44.4484 dc         1 CLA      0.065600
     94 H201       80.1591   56.4843   44.7061 dc         1 CLA      0.065600
     95 H193       79.7056   58.8480   42.5267 dc         1 CLA      0.065600
     96 H192       81.4133   59.3962   42.3027 dc         1 CLA      0.065600
     97 H191       80.8713   57.6669   42.1389 dc         1 CLA      0.065600
     98 H172       82.4032   56.5998   44.4646 dc         1 CLA      0.027600
     99 H171       82.8736   58.0053   45.4081 dc         1 CLA      0.027600
    100 H162       83.7864   58.9417   43.2722 dc         1 CLA      0.002900
    101 H161       83.2908   57.3978   42.4732 dc         1 CLA      0.002900
    102 H152       84.9907   56.1452   43.9508 dc         1 CLA      0.029100
    103 H151       85.2810   57.6119   44.7669 dc         1 CLA      0.029100
    104 H143       87.4223   57.6104   44.6255 dc         1 CLA      0.063600
    105 H142       87.7109   56.3475   43.3721 dc         1 CLA      0.063600
    106 H141       88.3477   57.9783   43.1620 dc         1 CLA      0.063600
    107 H122       85.0294   56.8076   41.3314 dc         1 CLA      0.032500
    108 H121       86.5806   55.9065   41.6607 dc         1 CLA      0.032500
    109 H112       87.6410   57.9024   40.5632 dc         1 CLA      0.006600
    110 H111       85.9354   58.4568   40.1430 dc         1 CLA      0.006600
    111 H102       85.6851   56.1195   39.0701 dc         1 CLA      0.024100
    112 H101       87.5173   55.7528   39.3231 dc         1 CLA      0.024100
    113 HHD        73.1394   58.0764   38.8110 da         1 CLA      0.174300
    114 HHC        77.6048   61.0236   42.1484 da         1 CLA      0.136800
    115 HHB        81.4840   61.2623   37.3341 da         1 CLA      0.138300
    116 HBD        77.0088   57.6185   32.7474 dc         1 CLA      0.107700
    117 HAB        78.8446   62.8305   42.6436 da         1 CLA      0.155200
    118 H93        88.4604   58.5707   38.4201 dc         1 CLA      0.069500
    119 H92        88.9824   57.0017   37.8672 dc         1 CLA      0.069500
    120 H91        88.5385   58.3219   36.6705 dc         1 CLA      0.069500
    121 H8         86.1777   58.1110   37.6636 dc         1 CLA      0.029300
    122 H72        85.4018   56.0830   36.6460 dc         1 CLA      0.044400
    123 H71        87.0681   55.4565   36.5138 dc         1 CLA      0.044400
    124 H62        87.5698   57.2960   34.8584 dc         1 CLA      0.015600
    125 H61        85.8860   57.8548   35.1368 dc         1 CLA      0.015600
    126 H52        86.9128   55.2068   33.9322 dc         1 CLA      0.033200
    127 H51        86.1218   56.4358   33.0782 dc         1 CLA      0.033200
    128 H43        83.7955   53.3972   34.7183 dc         1 CLA      0.037000
    129 H42        85.3416   53.2774   34.0441 dc         1 CLA      0.037000
    130 H41        85.1774   53.7271   35.7228 dc         1 CLA      0.037000
    131 H3A        80.9734   60.5975   34.6683 dc         1 CLA      0.041100
    132 H2A        80.1812   57.7058   34.5079 dc         1 CLA      0.083100
    133 H2         83.2221   56.5087   34.9066 da         1 CLA      0.180900
    134 H18        81.0480   59.3033   44.7109 dc         1 CLA     -0.003900
    135 H13        86.1595   58.6873   42.6145 dc         1 CLA      0.019700
    136 H12        81.8836   55.2268   32.8826 dc         1 CLA      0.120400
    137 H11        83.3674   55.6856   31.9094 dc         1 CLA      0.120400
    138 C1         69.5758   62.2023   48.6367 Z1         2 LUT      0.509236
    139 C2         68.2738   61.9080   49.2691 Z2         2 LUT     -0.434695
    140 C3         67.3741   63.0822   49.6672 Z3         2 LUT      0.437453
    141 O3         67.5919   63.4310   50.9945 S1         2 LUT     -0.547129
    142 C4         67.6811   64.2684   48.7996 Z4         2 LUT     -0.468603
    143 C5         68.3564   63.9729   47.4628 Z5         2 LUT      0.279246
    144 C6         69.3736   63.1334   47.4242 Z6         2 LUT     -0.305473
    145 C7         69.7879   62.4858   46.1606 Z7         2 LUT      0.069402
    146 C8         70.6527   63.0924   45.3581 Z8         2 LUT     -0.191631
    147 C9         71.3291   62.6110   44.1141 Z9         2 LUT      0.196698
    148 C10        72.2609   63.3096   43.4308 Y1         2 LUT     -0.208611
    149 C11        72.9273   63.0068   42.1756 Y2         2 LUT      0.030784
    150 C12        74.1698   63.6079   41.9148 Y3         2 LUT     -0.220316
    151 C13        75.1224   63.5478   40.7916 Y4         2 LUT      0.215937
    152 C14        76.2762   64.2450   40.9195 Y5         2 LUT     -0.185793
    153 C15        77.3475   64.4413   39.9747 Y6         2 LUT     -0.057835
    154 C16        70.0588   60.7229   48.4262 Y7         2 LUT     -0.405615
    155 C17        70.5499   62.8503   49.6456 Y7         2 LUT     -0.405615
    156 C18        67.6320   64.5350   46.3225 Y9         2 LUT     -0.369639
    157 C19        70.8688   61.2179   43.6197 W1         2 LUT     -0.333362
    158 C20        74.6028   62.9657   39.5659 W2         2 LUT     -0.323439
    159 C21        88.4193   66.3062   33.7182 Z1         2 LUT      0.406104
    160 C22        89.0499   65.6741   32.4933 Z2         2 LUT     -0.404965
    161 C23        89.2431   66.5204   31.2463 Z3         2 LUT      0.391255
    162 O23        89.4129   65.6450   30.1683 S1         2 LUT     -0.528210
    163 C24        88.1151   67.6321   31.1083 W6         2 LUT     -0.258361
    164 C25        87.1378   67.7885   32.0495 Z5         2 LUT      0.133546
    165 C26        87.0399   66.8854   33.3798 W8         2 LUT     -0.147008
    166 C27        86.3297   67.6309   34.5643 Z7         2 LUT      0.023843
    167 C28        85.1770   67.1219   35.1371 Z8         2 LUT     -0.216987
    168 C29        84.4751   67.5552   36.3433 Z9         2 LUT      0.206524
    169 C30        83.3738   66.8133   36.7516 Y1         2 LUT     -0.215556
    170 C31        82.6460   66.8906   38.0511 Y2         2 LUT      0.025142
    171 C32        81.5241   66.1883   38.2547 Y3         2 LUT     -0.212209
    172 C33        80.5734   66.2317   39.3951 Y4         2 LUT      0.240937
    173 C34        79.4320   65.4685   39.3154 Y5         2 LUT     -0.218862
    174 C35        78.3372   65.3376   40.2096 Y6         2 LUT     -0.023547
    175 C36        89.4109   67.3474   34.3770 Y7         2 LUT     -0.393485
    176 C37        88.1125   65.2945   34.7592 Y7         2 LUT     -0.393485
    177 C38        86.0465   68.7550   31.7431 Y9         2 LUT     -0.387526
    178 C39        85.1483   68.4749   37.3031 W1         2 LUT     -0.322618
    179 C40        81.1167   67.1296   40.5982 W2         2 LUT     -0.358472
    180 H403       80.5213   66.9203   41.4602 R7         2 LUT      0.097720
    181 H402       82.0899   66.9043   40.8613 R7         2 LUT      0.097720
    182 H401       81.0998   68.2211   40.2597 R7         2 LUT      0.097720
    183 H393       85.8341   67.9792   37.9273 R4         2 LUT      0.082505
    184 H392       85.6871   69.2967   36.8066 R4         2 LUT      0.082505
    185 H391       84.5052   68.9948   38.0393 R4         2 LUT      0.082505
    186 H383       85.0217   68.2939   31.6853 R1         2 LUT      0.104030
    187 H382       85.8762   69.5124   32.5627 R1         2 LUT      0.104030
    188 H381       86.2714   69.3309   30.8618 R1         2 LUT      0.104030
    189 H373       88.9365   64.7093   35.1786 T4         2 LUT      0.089537
    190 H372       87.7078   65.6666   35.6961 T4         2 LUT      0.089537
    191 H371       87.3074   64.6121   34.4570 T4         2 LUT      0.089537
    192 H363       89.7372   68.0084   33.5728 T4         2 LUT      0.089537
    193 H362       89.0274   67.9514   35.1223 T4         2 LUT      0.089537
    194 H361       90.2457   66.8243   34.8142 T4         2 LUT      0.089537
    195 H222       89.9717   65.1755   32.7736 U2         2 LUT      0.127376
    196 H221       88.4747   64.7560   32.2343 U2         2 LUT      0.127376
    197 H203       75.2401   63.3290   38.7683 R7         2 LUT      0.087068
    198 H202       74.5129   61.9218   39.5909 R7         2 LUT      0.087068
    199 H201       73.6706   63.4534   39.3567 R7         2 LUT      0.087068
    200 H193       71.4353   60.4397   44.0533 R4         2 LUT      0.089716
    201 H192       69.7794   60.9841   43.6716 R4         2 LUT      0.089716
    202 H191       71.0845   61.1533   42.5260 R4         2 LUT      0.089716
    203 H183       66.5920   64.3839   46.2982 R1         2 LUT      0.094572
    204 H182       67.7784   65.5995   46.2764 R1         2 LUT      0.094572
    205 H181       68.0798   64.0223   45.3898 R1         2 LUT      0.094572
    206 H173       70.9208   62.2832   50.5090 T4         2 LUT      0.093752
    207 H172       71.4158   63.2067   49.1310 T4         2 LUT      0.093752
    208 H171       70.1405   63.7372   50.1269 T4         2 LUT      0.093752
    209 H163       69.3981   60.1967   47.7287 T4         2 LUT      0.093752
    210 H162       71.0007   60.6288   47.9401 T4         2 LUT      0.093752
    211 H161       70.0566   60.2247   49.4101 T4         2 LUT      0.093752
    212 HO3        67.5375   62.6720   51.5907 Q1         2 LUT      0.300121
    213 H8         71.0260   64.0465   45.7213 U7         2 LUT      0.080784
    214 H7         69.3864   61.4797   45.8385 U6         2 LUT      0.042190
    215 H42        66.6573   64.6752   48.6110 U5         2 LUT      0.145166
    216 H41        68.3268   65.0008   49.3206 U5         2 LUT      0.145166
    217 H35        78.1036   65.8936   41.1087 T3         2 LUT      0.077919
    218 H34        79.3023   64.7742   38.4140 T2         2 LUT      0.073626
    219 H32        81.1951   65.5857   37.3917 T1         2 LUT      0.092510
    220 H31        83.0337   67.6350   38.7298 U9         2 LUT      0.070048
    221 H30        82.9160   66.0469   36.0645 U8         2 LUT      0.085442
    222 H3         66.2468   62.8511   49.5467 U3         2 LUT     -0.031596
    223 H28        84.5319   66.4343   34.5184 U7         2 LUT      0.084728
    224 H27        86.6984   68.4196   35.1713 U6         2 LUT      0.087291
    225 H26        86.3324   66.0632   33.0600 Q6         2 LUT      0.075325
    226 H24        88.0434   68.2334   30.2011 Q5         2 LUT      0.094482
    227 H23        90.1238   67.1008   31.4294 U3         2 LUT     -0.024869
    228 H22        67.6658   61.4475   48.4528 U2         2 LUT      0.127376
    229 H21        68.2893   61.0770   49.9946 U2         2 LUT      0.127376
    230 H15        77.4614   63.7643   39.1940 T3         2 LUT      0.093200
    231 H14        76.3061   64.8130   41.8157 T2         2 LUT      0.068865
    232 H12        74.5269   64.1808   42.7390 T1         2 LUT      0.095507
    233 H11        72.5535   62.3600   41.4124 U9         2 LUT      0.068930
    234 H10        72.4230   64.3097   43.8415 U8         2 LUT      0.083911
    235 H1         89.7977   65.9853   29.3581 Q1         2 LUT      0.297311
@<TRIPOS>BOND
    1     6     1 1
    2     7     2 1
    3     8     3 1
    4     9     4 1
    5    11     4 1
    6    12     6 1
    7    13     9 1
    8    16     9 1
    9    25     5 1
   10    25    16 1
   11    26    10 1
   12    26    17 1
   13    27    18 1
   14    28    14 1
   15    28    19 1
   16    29    12 1
   17    30    13 1
   18    31    24 1
   19    32     1 1
   20    32    25 1
   21    33    21 1
   22    33    26 1
   23    34    22 1
   24    34    27 1
   25    35    23 1
   26    35    28 1
   27    36    12 1
   28    36    24 1
   29    37    13 1
   30    37    15 1
   31    38    31 1
   32    39    20 1
   33    39    32 1
   34    40     2 1
   35    40    33 1
   36    41     3 1
   37    41    34 1
   38    42     4 1
   39    42    35 1
   40    43    38 1
   41    44     5 1
   42    44    17 1
   43    44    39 1
   44    45    10 1
   45    45    18 1
   46    45    40 1
   47    46    19 1
   48    46    41 1
   49    47    14 1
   50    47    16 1
   51    47    42 1
   52    48    38 1
   53    49    48 1
   54    50    49 1
   55    51    50 1
   56    52    51 1
   57    53    51 1
   58    54    53 1
   59    55    54 1
   60    56    55 1
   61    57    56 1
   62    58    56 1
   63    59    58 1
   64    60    59 1
   65    61    60 1
   66    62    61 1
   67    63    61 1
   68    64    27 1
   69    64    46 1
   70    65     5 1
   71    65    10 1
   72    65    64 1
   73    65    14 1
   74    66    23 1
   75    67    23 1
   76    68    23 1
   77    69    22 1
   78    70    22 1
   79    71    22 1
   80    72    21 1
   81    73    21 1
   82    74    21 1
   83    75    20 1
   84    76    20 1
   85    77    20 1
   86    78    15 1
   87    79    15 1
   88    80    15 1
   89    81     8 1
   90    82     8 1
   91    83     8 1
   92    84     7 1
   93    85     7 1
   94    86     6 1
   95    87     6 1
   96    88     3 1
   97    89     3 1
   98    90     1 1
   99    91     1 1
  100    92    63 1
  101    93    63 1
  102    94    63 1
  103    95    62 1
  104    96    62 1
  105    97    62 1
  106    98    60 1
  107    99    60 1
  108   100    59 1
  109   101    59 1
  110   102    58 1
  111   103    58 1
  112   104    57 1
  113   105    57 1
  114   106    57 1
  115   107    55 1
  116   108    55 1
  117   109    54 1
  118   110    54 1
  119   111    53 1
  120   112    53 1
  121   113    19 1
  122   114    18 1
  123   115    17 1
  124   116     9 1
  125   117     2 1
  126   118    52 1
  127   119    52 1
  128   120    52 1
  129   121    51 1
  130   122    50 1
  131   123    50 1
  132   124    49 1
  133   125    49 1
  134   126    48 1
  135   127    48 1
  136   128    43 1
  137   129    43 1
  138   130    43 1
  139   131    39 1
  140   132    32 1
  141   133    31 1
  142   134    61 1
  143   135    56 1
  144   136    24 1
  145   137    24 1
  146   139   138 1
  147   140   139 1
  148   141   140 1
  149   142   140 1
  150   143   142 1
  151   144   138 1
  152   144   143 1
  153   145   144 1
  154   146   145 1
  155   147   146 1
  156   148   147 1
  157   149   148 1
  158   150   149 1
  159   151   150 1
  160   152   151 1
  161   153   152 1
  162   154   138 1
  163   155   138 1
  164   156   143 1
  165   157   147 1
  166   158   151 1
  167   160   159 1
  168   161   160 1
  169   162   161 1
  170   163   161 1
  171   164   163 1
  172   165   159 1
  173   165   164 1
  174   166   165 1
  175   167   166 1
  176   168   167 1
  177   169   168 1
  178   170   169 1
  179   171   170 1
  180   172   171 1
  181   173   172 1
  182   174   153 1
  183   174   173 1
  184   175   159 1
  185   176   159 1
  186   177   164 1
  187   178   168 1
  188   179   172 1
  189   180   179 1
  190   181   179 1
  191   182   179 1
  192   183   178 1
  193   184   178 1
  194   185   178 1
  195   186   177 1
  196   187   177 1
  197   188   177 1
  198   189   176 1
  199   190   176 1
  200   191   176 1
  201   192   175 1
  202   193   175 1
  203   194   175 1
  204   195   160 1
  205   196   160 1
  206   197   158 1
  207   198   158 1
  208   199   158 1
  209   200   157 1
  210   201   157 1
  211   202   157 1
  212   203   156 1
  213   204   156 1
  214   205   156 1
  215   206   155 1
  216   207   155 1
  217   208   155 1
  218   209   154 1
  219   210   154 1
  220   211   154 1
  221   212   141 1
  222   213   146 1
  223   214   145 1
  224   215   142 1
  225   216   142 1
  226   217   174 1
  227   218   173 1
  228   219   171 1
  229   220   170 1
  230   221   169 1
  231   222   140 1
  232   223   167 1
  233   224   166 1
  234   225   165 1
  235   226   163 1
  236   227   161 1
  237   228   139 1
  238   229   139 1
  239   230   153 1
  240   231   152 1
  241   232   150 1
  242   233   149 1
  243   234   148 1
  244   235   162 1
  245   65    153 1
  246   65    174 1
@<TRIPOS>SUBSTRUCTURE
      1 CLA               1 ****               0 ****  **** 
      2 LUT             138 ****               0 ****  **** 
