@<TRIPOS>MOLECULE
Cpptraj generated mol2 file.
  235   246     2     0     0
SMALL
USER_CHARGES


@<TRIPOS>ATOM
      1 CAA        78.4153   58.6914   33.9173 a2         1 CLA     -0.055900
      2 CAB        78.0688   62.3251   42.8244 c8         1 CLA     -0.148500
      3 CAC        71.5405   57.7737   42.3647 a2         1 CLA     -0.012600
      4 CAD        74.3246   56.0483   34.9580 ck         1 CLA      0.398800
      5 NA         77.3702   58.9975   37.2926 ns         1 CLA     -0.225500
      6 CBA        79.7060   58.7197   33.0783 a2         1 CLA     -0.135000
      7 CBB        79.0757   62.1901   43.7573 c0         1 CLA     -0.395200
      8 CBC        71.8271   56.2826   42.2469 a3         1 CLA     -0.037700
      9 CBD        75.7203   56.6549   34.6346 a1         1 CLA     -0.053900
     10 NB         77.2241   60.3906   39.8888 nm         1 CLA     -0.295700
     11 OBD        73.8024   55.2829   34.1606 o2         1 CLA     -0.494600
     12 CGA        80.2836   57.3374   32.6661 c4         1 CLA      0.827000
     13 CGD        76.6686   55.6068   34.1966 c4         1 CLA      0.655300
     14 ND         74.6904   57.9467   37.8237 nm         1 CLA     -0.291600
     15 CED        77.3967   53.3323   34.4386 a3         1 CLA      0.005400
     16 CHA        76.1327   57.4854   35.8685 cs         1 CLA     -0.123800
     17 CHB        79.1717   60.3386   38.3699 aa         1 CLA     -0.291900
     18 CHC        75.8090   60.5388   41.8692 aa         1 CLA     -0.090400
     19 CHD        72.7930   57.7245   39.4025 aa         1 CLA     -0.052000
     20 CMA        80.8069   58.5728   36.6322 a3         1 CLA     -0.230700
     21 CMB        80.3194   62.2652   40.5180 a3         1 CLA     -0.180800
     22 CMC        73.6605   59.7550   44.0781 a3         1 CLA     -0.134000
     23 CMD        71.7956   55.5308   37.2324 a3         1 CLA     -0.141100
     24 C1         81.1804   55.2874   33.5464 a2         1 CLA      0.023000
     25 C1A        77.2383   58.3007   36.1273 ac         1 CLA     -0.015100
     26 C1B        78.5177   60.7170   39.5410 cr         1 CLA      0.054700
     27 C1C        74.6872   59.7571   41.6177 cn         1 CLA     -0.005600
     28 C1D        73.4566   57.3813   38.1779 ap         1 CLA     -0.047300
     29 O1A        80.3524   56.9418   31.4833 o2         1 CLA     -0.610800
     30 O1D        77.4336   55.7702   33.2864 o2         1 CLA     -0.558200
     31 C2         81.7157   54.7216   34.8066 c8         1 CLA     -0.325100
     32 C2A        78.5905   58.2028   35.3419 a1         1 CLA      0.098600
     33 C2B        79.0484   61.6191   40.5427 cb         1 CLA      0.088500
     34 C2C        73.5639   59.4897   42.5922 cb         1 CLA      0.053700
     35 C2D        73.0223   56.4365   37.1532 cb         1 CLA      0.058900
     36 O2A        80.7855   56.6647   33.7508 o1         1 CLA     -0.437200
     37 O2D        76.5583   54.4071   34.9366 o1         1 CLA     -0.357600
     38 C3         82.6884   53.8499   34.8833 c5         1 CLA      0.031200
     39 C3A        79.5416   59.2064   36.2195 a1         1 CLA      0.166800
     40 C3B        78.0275   61.7011   41.4862 cb         1 CLA      0.035000
     41 C3C        72.6820   58.6550   41.8610 cb         1 CLA     -0.089900
     42 C3D        74.0000   56.5551   36.1965 cb         1 CLA     -0.035900
     43 C4         82.3221   52.3955   34.6528 a3         1 CLA     -0.053300
     44 C4A        78.6955   59.4932   37.3987 ac         1 CLA      0.001800
     45 C4B        76.9069   60.8404   41.1496 cn         1 CLA     -0.020900
     46 C4C        73.3089   58.4705   40.5055 cr         1 CLA     -0.044400
     47 C4D        75.0094   57.4512   36.6698 c6         1 CLA     -0.046000
     48 C5         84.1597   54.2453   34.9799 a2         1 CLA     -0.070400
     49 C6         84.6049   55.7356   35.1119 a2         1 CLA      0.043900
     50 C7         84.5942   56.0746   36.6403 a2         1 CLA     -0.150000
     51 C8         84.8367   57.5256   37.1260 a1         1 CLA      0.064200
     52 C9         86.0556   58.1846   36.5003 a3         1 CLA     -0.259300
     53 C10        84.8097   57.6075   38.6802 a2         1 CLA     -0.071900
     54 C11        83.4725   57.5116   39.4218 a2         1 CLA      0.014500
     55 C12        83.7505   57.9061   40.9424 a2         1 CLA     -0.112100
     56 C13        82.4265   57.7081   41.7630 a1         1 CLA      0.089200
     57 C14        81.2543   58.6971   41.2532 a3         1 CLA     -0.239100
     58 C15        82.7972   57.9377   43.2574 a2         1 CLA     -0.102200
     59 C16        83.0600   59.4135   43.6715 a2         1 CLA      0.023900
     60 C17        83.2194   59.5319   45.1519 a2         1 CLA     -0.105700
     61 C18        83.8423   60.8645   45.6245 a1         1 CLA      0.206800
     62 C19        82.8397   61.9496   45.9502 a3         1 CLA     -0.280100
     63 C20        84.7424   60.6795   46.8344 a3         1 CLA     -0.280100
     64 NC         74.4785   59.2167   40.4366 nx         1 CLA     -0.309200
     65 MG         75.8784   59.3796   38.8297 mg         1 CLA      0.895000
     66 HMD3       71.8104   55.1577   38.2646 dc         1 CLA      0.064300
     67 HMD2       70.8952   55.9632   37.0382 dc         1 CLA      0.064300
     68 HMD1       72.0744   54.6229   36.6075 dc         1 CLA      0.064300
     69 HMC3       72.6987   59.4676   44.5489 dc         1 CLA      0.052100
     70 HMC2       74.4450   59.1294   44.4531 dc         1 CLA      0.052100
     71 HMC1       73.8901   60.7625   44.3745 dc         1 CLA      0.052100
     72 HMB3       80.2746   63.3129   40.4648 dc         1 CLA      0.063600
     73 HMB2       80.8978   61.8790   41.3855 dc         1 CLA      0.063600
     74 HMB1       80.8786   61.8943   39.7190 dc         1 CLA      0.063600
     75 HMA3       81.5235   59.1646   37.2099 dc         1 CLA      0.058300
     76 HMA2       80.6284   57.6175   37.1467 dc         1 CLA      0.058300
     77 HMA1       81.4276   58.2778   35.7788 dc         1 CLA      0.058300
     78 HED3       77.2486   52.4691   35.0006 dc         1 CLA      0.079300
     79 HED2       77.0219   53.2013   33.4375 dc         1 CLA      0.079300
     80 HED1       78.4684   53.5424   34.3835 dc         1 CLA      0.079300
     81 HBC3       72.9166   56.1976   42.4688 dc         1 CLA      0.016300
     82 HBC2       71.2503   55.7152   42.9914 dc         1 CLA      0.016300
     83 HBC1       71.5733   55.8816   41.2721 dc         1 CLA      0.016300
     84 HBB2       79.0405   62.5590   44.7853 da         1 CLA      0.183000
     85 HBB1       80.0194   61.6640   43.5708 da         1 CLA      0.183000
     86 HBA2       79.5821   59.3478   32.2334 dc         1 CLA      0.029400
     87 HBA1       80.4677   59.0864   33.7067 dc         1 CLA      0.029400
     88 HAC2       71.3117   58.0856   43.3167 dc         1 CLA      0.029300
     89 HAC1       70.5927   57.9342   41.8608 dc         1 CLA      0.029300
     90 HAA2       77.6813   58.0793   33.4403 dc         1 CLA      0.028700
     91 HAA1       77.9959   59.6620   33.9397 dc         1 CLA      0.028700
     92 H203       85.2039   61.6066   47.1039 dc         1 CLA      0.065600
     93 H202       84.0570   60.4484   47.6759 dc         1 CLA      0.065600
     94 H201       85.4883   59.8822   46.6507 dc         1 CLA      0.065600
     95 H193       82.1597   61.7075   46.7596 dc         1 CLA      0.065600
     96 H192       83.3879   62.8348   46.2226 dc         1 CLA      0.065600
     97 H191       82.2531   62.1751   45.0704 dc         1 CLA      0.065600
     98 H172       82.3111   59.2315   45.7522 dc         1 CLA      0.027600
     99 H171       84.0708   58.8259   45.4163 dc         1 CLA      0.027600
    100 H162       84.0293   59.8668   43.3627 dc         1 CLA      0.002900
    101 H161       82.1962   60.0500   43.5042 dc         1 CLA      0.002900
    102 H152       82.1293   57.3655   43.8759 dc         1 CLA      0.029100
    103 H151       83.6736   57.3052   43.4092 dc         1 CLA      0.029100
    104 H143       81.4943   59.7230   41.2283 dc         1 CLA      0.063600
    105 H142       80.7697   58.3838   40.3779 dc         1 CLA      0.063600
    106 H141       80.4447   58.6279   42.0299 dc         1 CLA      0.063600
    107 H122       84.5316   57.3728   41.4898 dc         1 CLA      0.032500
    108 H121       83.9333   58.9832   40.9214 dc         1 CLA      0.032500
    109 H112       82.6520   58.1550   39.0612 dc         1 CLA      0.006600
    110 H111       83.1415   56.4751   39.4401 dc         1 CLA      0.006600
    111 H102       85.4059   56.8356   39.0421 dc         1 CLA      0.024100
    112 H101       85.2812   58.5196   39.0095 dc         1 CLA      0.024100
    113 HHD        71.7163   57.3791   39.5798 da         1 CLA      0.174300
    114 HHC        75.8002   60.9296   42.9060 da         1 CLA      0.136800
    115 HHB        80.1902   60.6359   38.1606 da         1 CLA      0.138300
    116 HBD        75.6495   57.4170   33.9045 dc         1 CLA      0.107700
    117 HAB        77.1312   62.9217   43.1157 da         1 CLA      0.155200
    118 H93        85.6741   58.4818   35.5437 dc         1 CLA      0.069500
    119 H92        86.4699   59.0203   37.0696 dc         1 CLA      0.069500
    120 H91        86.8098   57.4381   36.2626 dc         1 CLA      0.069500
    121 H8         83.9512   58.1043   36.8467 dc         1 CLA      0.029300
    122 H72        83.5910   55.9272   36.9806 dc         1 CLA      0.044400
    123 H71        85.3749   55.4497   37.0942 dc         1 CLA      0.044400
    124 H62        85.6327   55.9556   34.7459 dc         1 CLA      0.015600
    125 H61        83.8803   56.4693   34.7062 dc         1 CLA      0.015600
    126 H52        84.5871   53.6599   35.8089 dc         1 CLA      0.033200
    127 H51        84.6846   53.8681   34.1137 dc         1 CLA      0.033200
    128 H43        82.9083   52.1066   33.7737 dc         1 CLA      0.037000
    129 H42        82.7359   51.7943   35.4838 dc         1 CLA      0.037000
    130 H41        81.2415   52.1085   34.6135 dc         1 CLA      0.037000
    131 H3A        79.7847   60.1610   35.7302 dc         1 CLA      0.041100
    132 H2A        78.8736   57.1551   35.3904 dc         1 CLA      0.083100
    133 H2         81.3685   55.1223   35.7564 da         1 CLA      0.180900
    134 H18        84.5370   61.1630   44.8191 dc         1 CLA     -0.003900
    135 H13        82.0359   56.6900   41.6213 dc         1 CLA      0.019700
    136 H12        80.2906   54.7023   33.2399 dc         1 CLA      0.120400
    137 H11        81.9357   55.3028   32.7679 dc         1 CLA      0.120400
    138 C1         68.9677   61.3234   49.9737 Z1         2 LUT      0.509236
    139 C2         68.4884   61.7787   51.3427 Z2         2 LUT     -0.434695
    140 C3         67.0749   62.2120   51.3168 Z3         2 LUT      0.437453
    141 O3         66.9248   62.9580   52.4981 S1         2 LUT     -0.547129
    142 C4         66.8456   63.1405   50.1695 Z4         2 LUT     -0.468603
    143 C5         67.2720   62.6975   48.8775 Z5         2 LUT      0.279246
    144 C6         68.2334   61.6974   48.7434 Z6         2 LUT     -0.305473
    145 C7         68.7413   61.2733   47.3872 Z7         2 LUT      0.069402
    146 C8         69.7024   61.9616   46.6747 Z8         2 LUT     -0.191631
    147 C9         70.2957   61.6742   45.3761 Z9         2 LUT      0.196698
    148 C10        71.3322   62.5069   44.9505 Y1         2 LUT     -0.208611
    149 C11        71.9963   62.6254   43.6171 Y2         2 LUT      0.030784
    150 C12        72.9589   63.4957   43.3070 Y3         2 LUT     -0.220316
    151 C13        73.7809   63.6678   42.1352 Y4         2 LUT      0.215937
    152 C14        74.8998   64.3920   42.2873 Y5         2 LUT     -0.185793
    153 C15        75.9384   64.6846   41.4155 Y6         2 LUT     -0.057835
    154 C16        68.8198   59.7377   50.0148 Y7         2 LUT     -0.405615
    155 C17        70.4511   61.5240   49.8847 Y7         2 LUT     -0.405615
    156 C18        66.7421   63.5746   47.7087 Y9         2 LUT     -0.369639
    157 C19        69.6902   60.5510   44.6037 W1         2 LUT     -0.333362
    158 C20        73.5223   63.1514   40.7825 W2         2 LUT     -0.323439
    159 C21        86.9344   66.0789   35.3982 Z1         2 LUT      0.406104
    160 C22        87.6532   65.4394   34.1528 Z2         2 LUT     -0.404965
    161 C23        88.0349   66.5249   33.1596 Z3         2 LUT      0.391255
    162 O23        88.6610   66.0284   31.9163 S1         2 LUT     -0.528210
    163 C24        86.7905   67.3575   32.7522 W6         2 LUT     -0.258361
    164 C25        85.7028   67.5771   33.5503 Z5         2 LUT      0.133546
    165 C26        85.6134   66.8072   34.8463 W8         2 LUT     -0.147008
    166 C27        84.9041   67.5408   35.9156 Z7         2 LUT      0.023843
    167 C28        83.9058   66.9553   36.5854 Z8         2 LUT     -0.216987
    168 C29        83.3171   67.3966   37.8288 Z9         2 LUT      0.206524
    169 C30        82.1521   66.7011   38.1412 Y1         2 LUT     -0.215556
    170 C31        81.4055   66.8441   39.3065 Y2         2 LUT      0.025142
    171 C32        80.2221   66.1770   39.5815 Y3         2 LUT     -0.212209
    172 C33        79.2759   66.3819   40.6388 Y4         2 LUT      0.240937
    173 C34        78.1034   65.5914   40.6951 Y5         2 LUT     -0.218862
    174 C35        77.0184   65.4751   41.6315 Y6         2 LUT     -0.023547
    175 C36        87.9766   67.0808   36.0338 Y7         2 LUT     -0.393485
    176 C37        86.6343   64.8763   36.3042 Y7         2 LUT     -0.393485
    177 C38        84.6190   68.4415   32.9593 Y9         2 LUT     -0.387526
    178 C39        84.1181   68.2811   38.7706 W1         2 LUT     -0.322618
    179 C40        79.4649   67.3248   41.7348 W2         2 LUT     -0.358472
    180 H403       79.0660   68.3025   41.5072 R7         2 LUT      0.097720
    181 H402       78.9315   67.0526   42.6790 R7         2 LUT      0.097720
    182 H401       80.5580   67.4397   41.9247 R7         2 LUT      0.097720
    183 H393       84.8185   67.5879   39.2658 R4         2 LUT      0.082505
    184 H392       84.6787   69.0537   38.2788 R4         2 LUT      0.082505
    185 H391       83.5340   68.7347   39.5775 R4         2 LUT      0.082505
    186 H383       84.9146   69.1332   32.1939 R1         2 LUT      0.104030
    187 H382       83.8960   67.8990   32.3514 R1         2 LUT      0.104030
    188 H381       83.9551   68.9085   33.6825 R1         2 LUT      0.104030
    189 H373       87.5912   64.4836   36.7176 T4         2 LUT      0.089537
    190 H372       86.1048   65.2201   37.1487 T4         2 LUT      0.089537
    191 H371       85.9906   64.1968   35.7567 T4         2 LUT      0.089537
    192 H363       89.0195   66.7467   35.8942 T4         2 LUT      0.089537
    193 H362       87.8847   68.0874   35.5850 T4         2 LUT      0.089537
    194 H361       87.7817   67.3679   37.0687 T4         2 LUT      0.089537
    195 H222       88.6268   65.0029   34.4125 U2         2 LUT      0.127376
    196 H221       86.9690   64.6943   33.7618 U2         2 LUT      0.127376
    197 H203       74.1480   62.3109   40.5704 R7         2 LUT      0.087068
    198 H202       72.4916   62.7211   40.7259 R7         2 LUT      0.087068
    199 H201       73.5214   63.8456   39.9463 R7         2 LUT      0.087068
    200 H193       70.1397   60.5153   43.5901 R4         2 LUT      0.089716
    201 H192       69.9806   59.6068   45.1854 R4         2 LUT      0.089716
    202 H191       68.6107   60.6304   44.5713 R4         2 LUT      0.089716
    203 H183       66.7867   62.9913   46.7326 R1         2 LUT      0.094572
    204 H182       65.6713   63.7352   47.9706 R1         2 LUT      0.094572
    205 H181       67.2520   64.5758   47.6750 R1         2 LUT      0.094572
    206 H173       70.8796   61.0181   49.0788 T4         2 LUT      0.093752
    207 H172       70.6077   62.5781   49.7712 T4         2 LUT      0.093752
    208 H171       70.8966   61.2241   50.8069 T4         2 LUT      0.093752
    209 H163       69.5463   59.4004   50.7249 T4         2 LUT      0.093752
    210 H162       67.8584   59.3239   50.3578 T4         2 LUT      0.093752
    211 H161       69.0586   59.2418   49.0921 T4         2 LUT      0.093752
    212 HO3        66.7708   62.3328   53.2244 Q1         2 LUT      0.300121
    213 H8         70.1217   62.7719   47.2649 U7         2 LUT      0.080784
    214 H7         68.3483   60.4071   46.9227 U6         2 LUT      0.042190
    215 H42        65.7383   63.3393   50.1686 U5         2 LUT      0.145166
    216 H41        67.3010   64.0564   50.4173 U5         2 LUT      0.145166
    217 H35        77.1357   66.0153   42.5139 T3         2 LUT      0.077919
    218 H34        77.9600   64.8862   39.8082 T2         2 LUT      0.073626
    219 H32        79.9826   65.4110   38.7927 T1         2 LUT      0.092510
    220 H31        81.7727   67.4913   40.0694 U9         2 LUT      0.070048
    221 H30        81.7687   66.0058   37.4015 U8         2 LUT      0.085442
    222 H3         66.4029   61.3419   51.2042 U3         2 LUT     -0.031596
    223 H28        83.4184   66.0922   36.1745 U7         2 LUT      0.084728
    224 H27        85.3785   68.3951   36.2339 U6         2 LUT      0.087291
    225 H26        84.9121   66.0914   34.4649 Q6         2 LUT      0.075325
    226 H24        86.9424   67.8930   31.7330 Q5         2 LUT      0.094482
    227 H23        88.7918   67.1120   33.7011 U3         2 LUT     -0.024869
    228 H22        68.6098   60.9673   52.0812 U2         2 LUT      0.127376
    229 H21        69.1877   62.6189   51.5203 U2         2 LUT      0.127376
    230 H15        76.0179   64.3182   40.4146 T3         2 LUT      0.093200
    231 H14        75.0335   64.9253   43.2486 T2         2 LUT      0.068865
    232 H12        73.4361   64.0290   44.1779 T1         2 LUT      0.095507
    233 H11        71.6025   61.9959   42.8218 U9         2 LUT      0.068930
    234 H10        71.7405   63.2255   45.6610 U8         2 LUT      0.083911
    235 H1         88.2696   65.2244   31.5545 Q1         2 LUT      0.297311
@<TRIPOS>BOND
    1     6     1 1
    2     7     2 1
    3     8     3 1
    4     9     4 1
    5    11     4 1
    6    12     6 1
    7    13     9 1
    8    16     9 1
    9    25     5 1
   10    25    16 1
   11    26    10 1
   12    26    17 1
   13    27    18 1
   14    28    14 1
   15    28    19 1
   16    29    12 1
   17    30    13 1
   18    31    24 1
   19    32     1 1
   20    32    25 1
   21    33    21 1
   22    33    26 1
   23    34    22 1
   24    34    27 1
   25    35    23 1
   26    35    28 1
   27    36    12 1
   28    36    24 1
   29    37    13 1
   30    37    15 1
   31    38    31 1
   32    39    20 1
   33    39    32 1
   34    40     2 1
   35    40    33 1
   36    41     3 1
   37    41    34 1
   38    42     4 1
   39    42    35 1
   40    43    38 1
   41    44     5 1
   42    44    17 1
   43    44    39 1
   44    45    10 1
   45    45    18 1
   46    45    40 1
   47    46    19 1
   48    46    41 1
   49    47    14 1
   50    47    16 1
   51    47    42 1
   52    48    38 1
   53    49    48 1
   54    50    49 1
   55    51    50 1
   56    52    51 1
   57    53    51 1
   58    54    53 1
   59    55    54 1
   60    56    55 1
   61    57    56 1
   62    58    56 1
   63    59    58 1
   64    60    59 1
   65    61    60 1
   66    62    61 1
   67    63    61 1
   68    64    27 1
   69    64    46 1
   70    65     5 1
   71    65    10 1
   72    65    64 1
   73    65    14 1
   74    66    23 1
   75    67    23 1
   76    68    23 1
   77    69    22 1
   78    70    22 1
   79    71    22 1
   80    72    21 1
   81    73    21 1
   82    74    21 1
   83    75    20 1
   84    76    20 1
   85    77    20 1
   86    78    15 1
   87    79    15 1
   88    80    15 1
   89    81     8 1
   90    82     8 1
   91    83     8 1
   92    84     7 1
   93    85     7 1
   94    86     6 1
   95    87     6 1
   96    88     3 1
   97    89     3 1
   98    90     1 1
   99    91     1 1
  100    92    63 1
  101    93    63 1
  102    94    63 1
  103    95    62 1
  104    96    62 1
  105    97    62 1
  106    98    60 1
  107    99    60 1
  108   100    59 1
  109   101    59 1
  110   102    58 1
  111   103    58 1
  112   104    57 1
  113   105    57 1
  114   106    57 1
  115   107    55 1
  116   108    55 1
  117   109    54 1
  118   110    54 1
  119   111    53 1
  120   112    53 1
  121   113    19 1
  122   114    18 1
  123   115    17 1
  124   116     9 1
  125   117     2 1
  126   118    52 1
  127   119    52 1
  128   120    52 1
  129   121    51 1
  130   122    50 1
  131   123    50 1
  132   124    49 1
  133   125    49 1
  134   126    48 1
  135   127    48 1
  136   128    43 1
  137   129    43 1
  138   130    43 1
  139   131    39 1
  140   132    32 1
  141   133    31 1
  142   134    61 1
  143   135    56 1
  144   136    24 1
  145   137    24 1
  146   139   138 1
  147   140   139 1
  148   141   140 1
  149   142   140 1
  150   143   142 1
  151   144   138 1
  152   144   143 1
  153   145   144 1
  154   146   145 1
  155   147   146 1
  156   148   147 1
  157   149   148 1
  158   150   149 1
  159   151   150 1
  160   152   151 1
  161   153   152 1
  162   154   138 1
  163   155   138 1
  164   156   143 1
  165   157   147 1
  166   158   151 1
  167   160   159 1
  168   161   160 1
  169   162   161 1
  170   163   161 1
  171   164   163 1
  172   165   159 1
  173   165   164 1
  174   166   165 1
  175   167   166 1
  176   168   167 1
  177   169   168 1
  178   170   169 1
  179   171   170 1
  180   172   171 1
  181   173   172 1
  182   174   153 1
  183   174   173 1
  184   175   159 1
  185   176   159 1
  186   177   164 1
  187   178   168 1
  188   179   172 1
  189   180   179 1
  190   181   179 1
  191   182   179 1
  192   183   178 1
  193   184   178 1
  194   185   178 1
  195   186   177 1
  196   187   177 1
  197   188   177 1
  198   189   176 1
  199   190   176 1
  200   191   176 1
  201   192   175 1
  202   193   175 1
  203   194   175 1
  204   195   160 1
  205   196   160 1
  206   197   158 1
  207   198   158 1
  208   199   158 1
  209   200   157 1
  210   201   157 1
  211   202   157 1
  212   203   156 1
  213   204   156 1
  214   205   156 1
  215   206   155 1
  216   207   155 1
  217   208   155 1
  218   209   154 1
  219   210   154 1
  220   211   154 1
  221   212   141 1
  222   213   146 1
  223   214   145 1
  224   215   142 1
  225   216   142 1
  226   217   174 1
  227   218   173 1
  228   219   171 1
  229   220   170 1
  230   221   169 1
  231   222   140 1
  232   223   167 1
  233   224   166 1
  234   225   165 1
  235   226   163 1
  236   227   161 1
  237   228   139 1
  238   229   139 1
  239   230   153 1
  240   231   152 1
  241   232   150 1
  242   233   149 1
  243   234   148 1
  244   235   162 1
  245   65    153 1
  246   65    174 1
@<TRIPOS>SUBSTRUCTURE
      1 CLA               1 ****               0 ****  **** 
      2 LUT             138 ****               0 ****  **** 
