@<TRIPOS>MOLECULE
Cpptraj generated mol2 file.
  235   246     2     0     0
SMALL
USER_CHARGES


@<TRIPOS>ATOM
      1 CAA        78.1865   57.4996   34.4749 a2         1 CLA     -0.055900
      2 CAB        77.8939   61.6736   43.4456 c8         1 CLA     -0.148500
      3 CAC        71.4830   57.0144   43.2339 a2         1 CLA     -0.012600
      4 CAD        74.0150   54.8420   35.9021 ck         1 CLA      0.398800
      5 NA         77.0539   58.1215   37.8288 ns         1 CLA     -0.225500
      6 CBA        79.5212   57.1930   33.7837 a2         1 CLA     -0.135000
      7 CBB        79.0024   62.3091   43.9914 c0         1 CLA     -0.395200
      8 CBC        71.7192   55.5325   43.1432 a3         1 CLA     -0.037700
      9 CBD        75.4952   55.3291   35.5762 a1         1 CLA     -0.053900
     10 NB         76.9526   59.6375   40.4460 nm         1 CLA     -0.295700
     11 OBD        73.4677   54.0464   35.2176 o2         1 CLA     -0.494600
     12 CGA        79.8653   55.6844   33.6231 c4         1 CLA      0.827000
     13 CGD        76.4775   54.1392   35.5716 c4         1 CLA      0.655300
     14 ND         74.2928   57.0700   38.6226 nm         1 CLA     -0.291600
     15 CED        77.0660   52.0585   36.6124 a3         1 CLA      0.005400
     16 CHA        75.7590   56.4623   36.6790 cs         1 CLA     -0.123800
     17 CHB        78.8550   59.3541   38.9353 aa         1 CLA     -0.291900
     18 CHC        75.6987   59.8695   42.5147 aa         1 CLA     -0.090400
     19 CHD        72.5480   56.8800   40.2732 aa         1 CLA     -0.052000
     20 CMA        80.4751   57.2170   37.4198 a3         1 CLA     -0.230700
     21 CMB        80.1286   61.4592   40.9316 a3         1 CLA     -0.180800
     22 CMC        73.5806   59.1377   44.7605 a3         1 CLA     -0.134000
     23 CMD        71.3875   54.7609   38.2927 a3         1 CLA     -0.141100
     24 C1         81.1728   53.9356   34.7223 a2         1 CLA      0.023000
     25 C1A        76.8942   57.2152   36.8321 ac         1 CLA     -0.015100
     26 C1B        78.2405   59.9322   40.0697 cr         1 CLA      0.054700
     27 C1C        74.5214   59.1461   42.3019 cn         1 CLA     -0.005600
     28 C1D        73.1194   56.5013   39.0459 ap         1 CLA     -0.047300
     29 O1A        79.5562   54.9500   32.6835 o2         1 CLA     -0.610800
     30 O1D        77.4212   53.9512   34.7402 o2         1 CLA     -0.558200
     31 C2         81.9054   53.7551   36.0316 c8         1 CLA     -0.325100
     32 C2A        78.2429   57.2107   36.0116 a1         1 CLA      0.098600
     33 C2B        78.8191   60.9075   41.0012 cb         1 CLA      0.088500
     34 C2C        73.5914   58.7145   43.3139 cb         1 CLA      0.053700
     35 C2D        72.6369   55.5371   38.0881 cb         1 CLA      0.058900
     36 O2A        80.7516   55.3495   34.6643 o1         1 CLA     -0.437200
     37 O2D        76.2197   53.2685   36.5758 o1         1 CLA     -0.357600
     38 C3         82.7727   52.8260   36.3732 c5         1 CLA      0.031200
     39 C3A        79.2670   58.0145   36.8262 a1         1 CLA      0.166800
     40 C3B        77.9427   60.9577   42.1150 cb         1 CLA      0.035000
     41 C3C        72.6668   57.8692   42.6611 cb         1 CLA     -0.089900
     42 C3D        73.6512   55.4723   37.1528 cb         1 CLA     -0.035900
     43 C4         82.3593   51.6682   37.2977 a3         1 CLA     -0.053300
     44 C4A        78.3614   58.5288   37.9241 ac         1 CLA      0.001800
     45 C4B        76.7996   60.1535   41.7516 cn         1 CLA     -0.020900
     46 C4C        73.1317   57.7457   41.2844 cr         1 CLA     -0.044400
     47 C4D        74.5999   56.4313   37.4674 c6         1 CLA     -0.046000
     48 C5         84.2127   52.8743   35.9854 a2         1 CLA     -0.070400
     49 C6         84.7675   54.3052   35.9941 a2         1 CLA      0.043900
     50 C7         84.9183   54.8755   37.3756 a2         1 CLA     -0.150000
     51 C8         85.2549   56.4447   37.3605 a1         1 CLA      0.064200
     52 C9         86.5476   56.7346   36.5669 a3         1 CLA     -0.259300
     53 C10        85.2820   57.0945   38.7739 a2         1 CLA     -0.071900
     54 C11        83.9444   57.0983   39.4699 a2         1 CLA      0.014500
     55 C12        83.8551   57.8016   40.8107 a2         1 CLA     -0.112100
     56 C13        84.8061   57.1507   41.9133 a1         1 CLA      0.089200
     57 C14        84.3432   55.6746   42.2769 a3         1 CLA     -0.239100
     58 C15        85.0200   58.1471   43.1643 a2         1 CLA     -0.102200
     59 C16        83.7949   58.4677   43.9759 a2         1 CLA      0.023900
     60 C17        84.0851   59.2767   45.2570 a2         1 CLA     -0.105700
     61 C18        82.8702   60.0801   45.9344 a1         1 CLA      0.206800
     62 C19        81.6926   59.1981   46.4001 a3         1 CLA     -0.280100
     63 C20        83.2214   60.9104   47.1476 a3         1 CLA     -0.280100
     64 NC         74.3154   58.4574   41.1262 nx         1 CLA     -0.309200
     65 MG         75.6249   58.4726   39.4106 mg         1 CLA      0.895000
     66 HMD3       70.5552   55.4012   38.5820 dc         1 CLA      0.064300
     67 HMD2       71.1352   54.1998   37.3540 dc         1 CLA      0.064300
     68 HMD1       71.5446   54.0947   39.1151 dc         1 CLA      0.064300
     69 HMC3       74.5634   58.8812   45.1164 dc         1 CLA      0.052100
     70 HMC2       73.3538   60.1894   44.8340 dc         1 CLA      0.052100
     71 HMC1       72.8578   58.5860   45.3569 dc         1 CLA      0.052100
     72 HMB3       80.0070   62.5295   41.2807 dc         1 CLA      0.063600
     73 HMB2       80.8508   61.0080   41.6115 dc         1 CLA      0.063600
     74 HMB1       80.4908   61.4745   39.9565 dc         1 CLA      0.063600
     75 HMA3       80.1059   56.3131   37.9158 dc         1 CLA      0.058300
     76 HMA2       81.2681   57.1182   36.6466 dc         1 CLA      0.058300
     77 HMA1       80.9253   57.9071   38.1353 dc         1 CLA      0.058300
     78 HED3       77.0307   51.6064   37.6657 dc         1 CLA      0.079300
     79 HED2       76.6603   51.3204   35.8871 dc         1 CLA      0.079300
     80 HED1       78.0505   52.4212   36.4212 dc         1 CLA      0.079300
     81 HBC3       72.5083   55.2783   43.8721 dc         1 CLA      0.016300
     82 HBC2       70.8591   54.9972   43.4066 dc         1 CLA      0.016300
     83 HBC1       71.9732   55.2361   42.1492 dc         1 CLA      0.016300
     84 HBB2       79.0311   62.6288   45.0201 da         1 CLA      0.183000
     85 HBB1       80.0012   62.3808   43.4790 da         1 CLA      0.183000
     86 HBA2       79.4021   57.6980   32.7907 dc         1 CLA      0.029400
     87 HBA1       80.2757   57.7689   34.3710 dc         1 CLA      0.029400
     88 HAC2       71.4204   57.1885   44.2876 dc         1 CLA      0.029300
     89 HAC1       70.5310   57.4117   42.8353 dc         1 CLA      0.029300
     90 HAA2       77.3604   56.9184   34.0092 dc         1 CLA      0.028700
     91 HAA1       77.9147   58.5413   34.2876 dc         1 CLA      0.028700
     92 H203       82.4458   61.5701   47.5135 dc         1 CLA      0.065600
     93 H202       83.5847   60.2544   47.9054 dc         1 CLA      0.065600
     94 H201       84.0540   61.6332   46.8241 dc         1 CLA      0.065600
     95 H193       81.7512   58.9230   47.4863 dc         1 CLA      0.065600
     96 H192       80.8021   59.8723   46.3303 dc         1 CLA      0.065600
     97 H191       81.4072   58.4127   45.7201 dc         1 CLA      0.065600
     98 H172       84.4613   58.4940   45.9159 dc         1 CLA      0.027600
     99 H171       84.9036   59.9882   45.0261 dc         1 CLA      0.027600
    100 H162       83.0807   58.9588   43.3748 dc         1 CLA      0.002900
    101 H161       83.3046   57.4255   44.2398 dc         1 CLA      0.002900
    102 H152       85.6893   57.5059   43.7788 dc         1 CLA      0.029100
    103 H151       85.6034   59.0445   42.9670 dc         1 CLA      0.029100
    104 H143       84.9436   55.2530   43.0523 dc         1 CLA      0.063600
    105 H142       83.2426   55.6648   42.5883 dc         1 CLA      0.063600
    106 H141       84.4196   55.0993   41.4220 dc         1 CLA      0.063600
    107 H122       84.1022   58.8740   40.7532 dc         1 CLA      0.032500
    108 H121       82.7370   57.7665   41.0232 dc         1 CLA      0.032500
    109 H112       83.2355   57.6165   38.8671 dc         1 CLA      0.006600
    110 H111       83.5951   56.0408   39.5436 dc         1 CLA      0.006600
    111 H102       85.9511   56.4400   39.3870 dc         1 CLA      0.024100
    112 H101       85.6821   58.1163   38.7740 dc         1 CLA      0.024100
    113 HHD        71.6527   56.4213   40.6044 da         1 CLA      0.174300
    114 HHC        75.6783   60.1690   43.5235 da         1 CLA      0.136800
    115 HHB        79.8521   59.7283   38.8945 da         1 CLA      0.138300
    116 HBD        75.4470   55.7401   34.5905 dc         1 CLA      0.107700
    117 HAB        76.9776   61.6561   44.1049 da         1 CLA      0.155200
    118 H93        87.2769   56.0279   37.0725 dc         1 CLA      0.069500
    119 H92        86.4080   56.4215   35.5759 dc         1 CLA      0.069500
    120 H91        86.6139   57.7819   36.5853 dc         1 CLA      0.069500
    121 H8         84.3946   56.9821   36.9084 dc         1 CLA      0.029300
    122 H72        83.9658   54.7079   37.9177 dc         1 CLA      0.044400
    123 H71        85.8120   54.4151   37.9239 dc         1 CLA      0.044400
    124 H62        85.8021   54.1671   35.6180 dc         1 CLA      0.015600
    125 H61        84.2860   54.8733   35.1737 dc         1 CLA      0.015600
    126 H52        84.8909   52.2401   36.6049 dc         1 CLA      0.033200
    127 H51        84.2186   52.5145   34.9753 dc         1 CLA      0.033200
    128 H43        83.0300   51.6354   38.1159 dc         1 CLA      0.037000
    129 H42        81.3736   51.7829   37.7483 dc         1 CLA      0.037000
    130 H41        82.2509   50.7178   36.7953 dc         1 CLA      0.037000
    131 H3A        79.6073   58.8734   36.2171 dc         1 CLA      0.041100
    132 H2A        78.5037   56.1267   36.1443 dc         1 CLA      0.083100
    133 H2         81.9203   54.5664   36.7735 da         1 CLA      0.180900
    134 H18        82.4732   60.7742   45.1524 dc         1 CLA     -0.003900
    135 H13        85.8343   57.0741   41.5408 dc         1 CLA      0.019700
    136 H12        80.2637   53.2273   34.5369 dc         1 CLA      0.120400
    137 H11        81.9276   53.7853   33.9033 dc         1 CLA      0.120400
    138 C1         68.0682   60.2909   49.9413 Z1         2 LUT      0.509236
    139 C2         67.8088   61.2861   51.1542 Z2         2 LUT     -0.434695
    140 C3         66.3813   61.7187   51.3158 Z3         2 LUT      0.437453
    141 O3         66.3412   62.6021   52.3966 S1         2 LUT     -0.547129
    142 C4         65.8680   62.4233   50.0793 Z4         2 LUT     -0.468603
    143 C5         66.3852   61.9281   48.7743 Z5         2 LUT      0.279246
    144 C6         67.4182   61.0303   48.6838 Z6         2 LUT     -0.305473
    145 C7         68.1521   60.6964   47.4679 Z7         2 LUT      0.069402
    146 C8         68.8962   61.4392   46.6202 Z8         2 LUT     -0.191631
    147 C9         69.3217   60.9834   45.3085 Z9         2 LUT      0.196698
    148 C10        70.3014   61.6865   44.6656 Y1         2 LUT     -0.208611
    149 C11        70.9245   61.4551   43.4189 Y2         2 LUT      0.030784
    150 C12        71.9555   62.1925   42.9722 Y3         2 LUT     -0.220316
    151 C13        72.7782   62.1780   41.7566 Y4         2 LUT      0.215937
    152 C14        73.8544   63.0364   41.6863 Y5         2 LUT     -0.185793
    153 C15        74.8512   63.1324   40.6589 Y6         2 LUT     -0.057835
    154 C16        67.2311   59.0797   50.1560 Y7         2 LUT     -0.405615
    155 C17        69.5797   59.8525   49.9061 Y7         2 LUT     -0.405615
    156 C18        65.8139   62.8691   47.7842 Y9         2 LUT     -0.369639
    157 C19        68.6375   59.8056   44.6403 W1         2 LUT     -0.333362
    158 C20        72.3120   61.3133   40.5627 W2         2 LUT     -0.323439
    159 C21        86.7964   64.6993   35.3153 Z1         2 LUT      0.406104
    160 C22        87.5553   64.1254   34.1491 Z2         2 LUT     -0.404965
    161 C23        87.6893   65.0981   32.9912 Z3         2 LUT      0.391255
    162 O23        88.1393   64.3269   31.8403 S1         2 LUT     -0.528210
    163 C24        86.3005   65.7227   32.7122 W6         2 LUT     -0.258361
    164 C25        85.2353   65.7243   33.4991 Z5         2 LUT      0.133546
    165 C26        85.2733   65.0151   34.8703 W8         2 LUT     -0.147008
    166 C27        84.4616   65.6246   35.9713 Z7         2 LUT      0.023843
    167 C28        83.2759   65.0680   36.3595 Z8         2 LUT     -0.216987
    168 C29        82.4227   65.5605   37.4462 Z9         2 LUT      0.206524
    169 C30        81.3586   64.8011   37.7690 Y1         2 LUT     -0.215556
    170 C31        80.3503   65.0001   38.7928 Y2         2 LUT      0.025142
    171 C32        79.2765   64.2207   39.0398 Y3         2 LUT     -0.212209
    172 C33        78.2177   64.4678   40.0038 Y4         2 LUT      0.240937
    173 C34        77.0534   63.7545   39.9356 Y5         2 LUT     -0.218862
    174 C35        75.9685   63.8222   40.8590 Y6         2 LUT     -0.023547
    175 C36        87.5781   66.0011   35.8249 Y7         2 LUT     -0.393485
    176 C37        86.9681   63.7238   36.4278 Y7         2 LUT     -0.393485
    177 C38        83.9129   66.5043   33.0352 Y9         2 LUT     -0.387526
    178 C39        82.7669   66.9427   38.0946 W1         2 LUT     -0.322618
    179 C40        78.6290   65.0548   41.3371 W2         2 LUT     -0.358472
    180 H403       79.6485   65.4294   41.3757 R7         2 LUT      0.097720
    181 H402       78.1526   65.9361   41.8096 R7         2 LUT      0.097720
    182 H401       78.5011   64.2729   42.0962 R7         2 LUT      0.097720
    183 H393       82.4349   66.9305   39.1410 R4         2 LUT      0.082505
    184 H392       83.8203   66.9787   38.4201 R4         2 LUT      0.082505
    185 H391       82.4965   67.9134   37.6046 R4         2 LUT      0.082505
    186 H383       83.8561   67.5437   33.4075 R1         2 LUT      0.104030
    187 H382       83.9497   66.6810   31.9494 R1         2 LUT      0.104030
    188 H381       83.0052   66.0083   33.2362 R1         2 LUT      0.104030
    189 H373       86.3651   63.9011   37.2959 T4         2 LUT      0.089537
    190 H372       86.7404   62.6743   36.0632 T4         2 LUT      0.089537
    191 H371       88.0415   63.6444   36.7057 T4         2 LUT      0.089537
    192 H363       88.5828   65.6945   36.0547 T4         2 LUT      0.089537
    193 H362       87.6439   66.7797   35.0153 T4         2 LUT      0.089537
    194 H361       87.0841   66.5533   36.6719 T4         2 LUT      0.089537
    195 H222       88.5206   63.8149   34.4026 U2         2 LUT      0.127376
    196 H221       86.9508   63.2281   33.7827 U2         2 LUT      0.127376
    197 H203       72.3247   60.2202   40.7844 R7         2 LUT      0.087068
    198 H202       71.2794   61.5473   40.3250 R7         2 LUT      0.087068
    199 H201       72.9269   61.4005   39.6322 R7         2 LUT      0.087068
    200 H193       69.2108   58.9170   44.6281 R4         2 LUT      0.089716
    201 H192       67.6413   59.6088   45.0423 R4         2 LUT      0.089716
    202 H191       68.5001   60.0111   43.5750 R4         2 LUT      0.089716
    203 H183       65.9905   62.3914   46.7753 R1         2 LUT      0.094572
    204 H182       64.7070   62.9345   47.8465 R1         2 LUT      0.094572
    205 H181       66.3149   63.8235   47.7318 R1         2 LUT      0.094572
    206 H173       69.7731   58.9864   49.2382 T4         2 LUT      0.093752
    207 H172       70.1470   60.6787   49.4444 T4         2 LUT      0.093752
    208 H171       69.9638   59.5585   50.8843 T4         2 LUT      0.093752
    209 H163       67.4615   58.4523   51.0020 T4         2 LUT      0.093752
    210 H162       66.1297   59.2615   50.1174 T4         2 LUT      0.093752
    211 H161       67.3500   58.3864   49.3527 T4         2 LUT      0.093752
    212 HO3        65.9980   62.2691   53.2238 Q1         2 LUT      0.300121
    213 H8         68.9110   62.4893   46.7274 U7         2 LUT      0.080784
    214 H7         67.9026   59.6748   47.2814 U6         2 LUT      0.042190
    215 H42        64.7377   62.3141   50.1714 U5         2 LUT      0.145166
    216 H41        65.9980   63.5159   50.1580 U5         2 LUT      0.145166
    217 H35        76.0634   64.4976   41.8297 T3         2 LUT      0.077919
    218 H34        76.9103   63.0594   39.0881 T2         2 LUT      0.073626
    219 H32        79.0176   63.3539   38.3942 T1         2 LUT      0.092510
    220 H31        80.4840   65.8889   39.3975 U9         2 LUT      0.070048
    221 H30        81.1533   63.9216   37.1689 U8         2 LUT      0.085442
    222 H3         65.6530   60.8929   51.3082 U3         2 LUT     -0.031596
    223 H28        82.8984   64.2030   35.7580 U7         2 LUT      0.084728
    224 H27        84.8475   66.4778   36.4900 U6         2 LUT      0.087291
    225 H26        84.8747   64.0714   34.5233 Q6         2 LUT      0.075325
    226 H24        86.2087   66.1497   31.7645 Q5         2 LUT      0.094482
    227 H23        88.4894   65.8183   32.9886 U3         2 LUT     -0.024869
    228 H22        68.1682   60.8543   52.1012 U2         2 LUT      0.127376
    229 H21        68.4053   62.1914   51.0049 U2         2 LUT      0.127376
    230 H15        74.7478   62.4378   39.8177 T3         2 LUT      0.093200
    231 H14        74.0540   63.7035   42.4961 T2         2 LUT      0.068865
    232 H12        72.2132   63.0707   43.6057 T1         2 LUT      0.095507
    233 H11        70.5361   60.6533   42.8398 U9         2 LUT      0.068930
    234 H10        70.6317   62.5983   45.0843 U8         2 LUT      0.083911
    235 H1         88.1528   64.8244   30.9832 Q1         2 LUT      0.297311
@<TRIPOS>BOND
    1     6     1 1
    2     7     2 1
    3     8     3 1
    4     9     4 1
    5    11     4 1
    6    12     6 1
    7    13     9 1
    8    16     9 1
    9    25     5 1
   10    25    16 1
   11    26    10 1
   12    26    17 1
   13    27    18 1
   14    28    14 1
   15    28    19 1
   16    29    12 1
   17    30    13 1
   18    31    24 1
   19    32     1 1
   20    32    25 1
   21    33    21 1
   22    33    26 1
   23    34    22 1
   24    34    27 1
   25    35    23 1
   26    35    28 1
   27    36    12 1
   28    36    24 1
   29    37    13 1
   30    37    15 1
   31    38    31 1
   32    39    20 1
   33    39    32 1
   34    40     2 1
   35    40    33 1
   36    41     3 1
   37    41    34 1
   38    42     4 1
   39    42    35 1
   40    43    38 1
   41    44     5 1
   42    44    17 1
   43    44    39 1
   44    45    10 1
   45    45    18 1
   46    45    40 1
   47    46    19 1
   48    46    41 1
   49    47    14 1
   50    47    16 1
   51    47    42 1
   52    48    38 1
   53    49    48 1
   54    50    49 1
   55    51    50 1
   56    52    51 1
   57    53    51 1
   58    54    53 1
   59    55    54 1
   60    56    55 1
   61    57    56 1
   62    58    56 1
   63    59    58 1
   64    60    59 1
   65    61    60 1
   66    62    61 1
   67    63    61 1
   68    64    27 1
   69    64    46 1
   70    65     5 1
   71    65    10 1
   72    65    64 1
   73    65    14 1
   74    66    23 1
   75    67    23 1
   76    68    23 1
   77    69    22 1
   78    70    22 1
   79    71    22 1
   80    72    21 1
   81    73    21 1
   82    74    21 1
   83    75    20 1
   84    76    20 1
   85    77    20 1
   86    78    15 1
   87    79    15 1
   88    80    15 1
   89    81     8 1
   90    82     8 1
   91    83     8 1
   92    84     7 1
   93    85     7 1
   94    86     6 1
   95    87     6 1
   96    88     3 1
   97    89     3 1
   98    90     1 1
   99    91     1 1
  100    92    63 1
  101    93    63 1
  102    94    63 1
  103    95    62 1
  104    96    62 1
  105    97    62 1
  106    98    60 1
  107    99    60 1
  108   100    59 1
  109   101    59 1
  110   102    58 1
  111   103    58 1
  112   104    57 1
  113   105    57 1
  114   106    57 1
  115   107    55 1
  116   108    55 1
  117   109    54 1
  118   110    54 1
  119   111    53 1
  120   112    53 1
  121   113    19 1
  122   114    18 1
  123   115    17 1
  124   116     9 1
  125   117     2 1
  126   118    52 1
  127   119    52 1
  128   120    52 1
  129   121    51 1
  130   122    50 1
  131   123    50 1
  132   124    49 1
  133   125    49 1
  134   126    48 1
  135   127    48 1
  136   128    43 1
  137   129    43 1
  138   130    43 1
  139   131    39 1
  140   132    32 1
  141   133    31 1
  142   134    61 1
  143   135    56 1
  144   136    24 1
  145   137    24 1
  146   139   138 1
  147   140   139 1
  148   141   140 1
  149   142   140 1
  150   143   142 1
  151   144   138 1
  152   144   143 1
  153   145   144 1
  154   146   145 1
  155   147   146 1
  156   148   147 1
  157   149   148 1
  158   150   149 1
  159   151   150 1
  160   152   151 1
  161   153   152 1
  162   154   138 1
  163   155   138 1
  164   156   143 1
  165   157   147 1
  166   158   151 1
  167   160   159 1
  168   161   160 1
  169   162   161 1
  170   163   161 1
  171   164   163 1
  172   165   159 1
  173   165   164 1
  174   166   165 1
  175   167   166 1
  176   168   167 1
  177   169   168 1
  178   170   169 1
  179   171   170 1
  180   172   171 1
  181   173   172 1
  182   174   153 1
  183   174   173 1
  184   175   159 1
  185   176   159 1
  186   177   164 1
  187   178   168 1
  188   179   172 1
  189   180   179 1
  190   181   179 1
  191   182   179 1
  192   183   178 1
  193   184   178 1
  194   185   178 1
  195   186   177 1
  196   187   177 1
  197   188   177 1
  198   189   176 1
  199   190   176 1
  200   191   176 1
  201   192   175 1
  202   193   175 1
  203   194   175 1
  204   195   160 1
  205   196   160 1
  206   197   158 1
  207   198   158 1
  208   199   158 1
  209   200   157 1
  210   201   157 1
  211   202   157 1
  212   203   156 1
  213   204   156 1
  214   205   156 1
  215   206   155 1
  216   207   155 1
  217   208   155 1
  218   209   154 1
  219   210   154 1
  220   211   154 1
  221   212   141 1
  222   213   146 1
  223   214   145 1
  224   215   142 1
  225   216   142 1
  226   217   174 1
  227   218   173 1
  228   219   171 1
  229   220   170 1
  230   221   169 1
  231   222   140 1
  232   223   167 1
  233   224   166 1
  234   225   165 1
  235   226   163 1
  236   227   161 1
  237   228   139 1
  238   229   139 1
  239   230   153 1
  240   231   152 1
  241   232   150 1
  242   233   149 1
  243   234   148 1
  244   235   162 1
  245   65    153 1
  246   65    174 1
@<TRIPOS>SUBSTRUCTURE
      1 CLA               1 ****               0 ****  **** 
      2 LUT             138 ****               0 ****  **** 
