@<TRIPOS>MOLECULE
Cpptraj generated mol2 file.
  235   246     2     0     0
SMALL
USER_CHARGES


@<TRIPOS>ATOM
      1 CAA        77.3138   58.7652   35.6246 a2         1 CLA     -0.055900
      2 CAB        76.7459   62.1814   44.5468 c8         1 CLA     -0.148500
      3 CAC        70.2426   57.1198   43.8352 a2         1 CLA     -0.012600
      4 CAD        73.5055   55.7329   36.4281 ck         1 CLA      0.398800
      5 NA         76.2708   58.7432   38.9504 ns         1 CLA     -0.225500
      6 CBA        78.4710   58.7271   34.6366 a2         1 CLA     -0.135000
      7 CBB        76.6423   61.4886   45.6696 c0         1 CLA     -0.395200
      8 CBC        70.5788   55.6519   43.9260 a3         1 CLA     -0.037700
      9 CBD        74.8675   56.4700   36.2108 a1         1 CLA     -0.053900
     10 NB         75.8093   60.1170   41.5099 nm         1 CLA     -0.295700
     11 OBD        72.9604   55.0758   35.5944 o2         1 CLA     -0.494600
     12 CGA        79.0852   57.3753   34.3610 c4         1 CLA      0.827000
     13 CGD        75.8932   55.4632   35.7444 c4         1 CLA      0.655300
     14 ND         73.6307   57.5289   39.3489 nm         1 CLA     -0.291600
     15 CED        76.9650   53.3760   36.5668 a3         1 CLA      0.005400
     16 CHA        75.1537   57.1925   37.4463 cs         1 CLA     -0.123800
     17 CHB        77.7920   60.3409   40.0145 aa         1 CLA     -0.291900
     18 CHC        74.4605   60.1353   43.5600 aa         1 CLA     -0.090400
     19 CHD        71.7468   57.0714   40.8792 aa         1 CLA     -0.052000
     20 CMA        79.7530   58.3360   38.4530 a3         1 CLA     -0.230700
     21 CMB        78.8967   62.2053   42.0940 a3         1 CLA     -0.180800
     22 CMC        72.1807   59.3752   45.5975 a3         1 CLA     -0.134000
     23 CMD        70.7393   55.3511   38.3552 a3         1 CLA     -0.141100
     24 C1         80.1179   55.6537   35.3824 a2         1 CLA      0.023000
     25 C1A        76.2433   57.9785   37.8248 ac         1 CLA     -0.015100
     26 C1B        77.0030   60.6555   41.1347 cr         1 CLA      0.054700
     27 C1C        73.4523   59.2246   43.2520 cn         1 CLA     -0.005600
     28 C1D        72.4462   56.9233   39.6832 ap         1 CLA     -0.047300
     29 O1A        78.9969   56.7415   33.3288 o2         1 CLA     -0.610800
     30 O1D        76.5383   55.5203   34.7339 o2         1 CLA     -0.558200
     31 C2         80.5255   55.0552   36.7573 c8         1 CLA     -0.325100
     32 C2A        77.5252   58.1913   37.0457 a1         1 CLA      0.098600
     33 C2B        77.5041   61.5360   42.2005 cb         1 CLA      0.088500
     34 C2C        72.3160   58.8615   44.0905 cb         1 CLA      0.053700
     35 C2D        71.9662   56.1414   38.5179 cb         1 CLA      0.058900
     36 O2A        79.7850   57.0544   35.4940 o1         1 CLA     -0.437200
     37 O2D        76.1184   54.5626   36.7225 o1         1 CLA     -0.357600
     38 C3         81.4743   54.0785   36.8385 c5         1 CLA      0.031200
     39 C3A        78.4411   59.0555   37.9429 a1         1 CLA      0.166800
     40 C3B        76.6207   61.4867   43.2570 cb         1 CLA      0.035000
     41 C3C        71.5420   57.9535   43.3357 cb         1 CLA     -0.089900
     42 C3D        73.0613   56.1868   37.6707 cb         1 CLA     -0.035900
     43 C4         81.1076   52.5869   37.0270 a3         1 CLA     -0.053300
     44 C4A        77.4685   59.4153   39.0575 ac         1 CLA      0.001800
     45 C4B        75.5745   60.5643   42.8051 cn         1 CLA     -0.020900
     46 C4C        72.2241   57.8260   42.0414 cr         1 CLA     -0.044400
     47 C4D        74.0416   56.9777   38.2113 c6         1 CLA     -0.046000
     48 C5         82.9038   54.4559   36.4464 a2         1 CLA     -0.070400
     49 C6         83.3978   55.8881   36.6031 a2         1 CLA      0.043900
     50 C7         83.5476   56.3128   38.1367 a2         1 CLA     -0.150000
     51 C8         84.3054   57.6156   38.5356 a1         1 CLA      0.064200
     52 C9         85.7500   57.6338   38.0187 a3         1 CLA     -0.259300
     53 C10        84.3584   57.8681   40.1027 a2         1 CLA     -0.071900
     54 C11        82.9763   57.8673   40.8230 a2         1 CLA      0.014500
     55 C12        83.0784   58.4573   42.2690 a2         1 CLA     -0.112100
     56 C13        83.8473   57.5924   43.3367 a1         1 CLA      0.089200
     57 C14        83.5033   56.0575   43.3006 a3         1 CLA     -0.239100
     58 C15        83.7249   58.2797   44.7963 a2         1 CLA     -0.102200
     59 C16        82.3701   58.7365   45.1238 a2         1 CLA      0.023900
     60 C17        82.2891   59.3346   46.5139 a2         1 CLA     -0.105700
     61 C18        81.1321   60.2591   47.0058 a1         1 CLA      0.206800
     62 C19        81.2928   60.5142   48.4820 a3         1 CLA     -0.280100
     63 C20        80.9688   61.6159   46.2702 a3         1 CLA     -0.280100
     64 NC         73.4105   58.5741   42.0906 nx         1 CLA     -0.309200
     65 MG         74.7654   58.8796   40.4253 mg         1 CLA      0.895000
     66 HMD3       70.0985   56.2025   38.5120 dc         1 CLA      0.064300
     67 HMD2       70.4998   54.8195   37.4163 dc         1 CLA      0.064300
     68 HMD1       70.7376   54.6555   39.1767 dc         1 CLA      0.064300
     69 HMC3       71.4425   58.7794   46.1241 dc         1 CLA      0.052100
     70 HMC2       73.1585   59.1550   46.0905 dc         1 CLA      0.052100
     71 HMC1       72.1610   60.4727   45.5326 dc         1 CLA      0.052100
     72 HMB3       78.9451   62.7000   41.1920 dc         1 CLA      0.063600
     73 HMB2       79.1975   62.9586   42.7436 dc         1 CLA      0.063600
     74 HMB1       79.6521   61.3573   42.0925 dc         1 CLA      0.063600
     75 HMA3       80.4187   57.9756   37.6539 dc         1 CLA      0.058300
     76 HMA2       80.3862   58.9706   39.1205 dc         1 CLA      0.058300
     77 HMA1       79.3851   57.5525   39.1486 dc         1 CLA      0.058300
     78 HED3       76.4011   52.6098   37.0626 dc         1 CLA      0.079300
     79 HED2       77.0591   53.1975   35.4892 dc         1 CLA      0.079300
     80 HED1       77.9373   53.4758   37.0584 dc         1 CLA      0.079300
     81 HBC3       71.4430   55.4721   44.5745 dc         1 CLA      0.016300
     82 HBC2       69.7956   55.1336   44.4479 dc         1 CLA      0.016300
     83 HBC1       70.7469   55.2434   42.9250 dc         1 CLA      0.016300
     84 HBB2       76.7974   61.8891   46.6988 da         1 CLA      0.183000
     85 HBB1       76.4844   60.4018   45.6835 da         1 CLA      0.183000
     86 HBA2       78.0322   59.1054   33.6781 dc         1 CLA      0.029400
     87 HBA1       79.2417   59.4375   34.9506 dc         1 CLA      0.029400
     88 HAC2       69.9218   57.4834   44.8375 dc         1 CLA      0.029300
     89 HAC1       69.4500   57.2796   43.1965 dc         1 CLA      0.029300
     90 HAA2       76.5345   58.2246   35.0718 dc         1 CLA      0.028700
     91 HAA1       76.9580   59.7718   35.7289 dc         1 CLA      0.028700
     92 H203       80.4880   62.3783   46.7832 dc         1 CLA      0.065600
     93 H202       81.9800   62.0310   46.0476 dc         1 CLA      0.065600
     94 H201       80.5930   61.4835   45.2981 dc         1 CLA      0.065600
     95 H193       82.2647   60.9922   48.6704 dc         1 CLA      0.065600
     96 H192       80.5302   61.2324   48.7476 dc         1 CLA      0.065600
     97 H191       81.2037   59.5414   48.9951 dc         1 CLA      0.065600
     98 H172       82.3903   58.5534   47.2484 dc         1 CLA      0.027600
     99 H171       83.2022   59.8935   46.6281 dc         1 CLA      0.027600
    100 H162       81.9949   59.5089   44.4110 dc         1 CLA      0.002900
    101 H161       81.7321   57.8189   45.1862 dc         1 CLA      0.002900
    102 H152       84.2595   57.8713   45.6656 dc         1 CLA      0.029100
    103 H151       84.2424   59.2205   44.5199 dc         1 CLA      0.029100
    104 H143       82.4306   55.8146   43.3259 dc         1 CLA      0.063600
    105 H142       83.8471   55.6378   42.3619 dc         1 CLA      0.063600
    106 H141       84.1173   55.5359   44.0469 dc         1 CLA      0.063600
    107 H122       83.6404   59.3791   42.1245 dc         1 CLA      0.032500
    108 H121       82.0867   58.5403   42.5655 dc         1 CLA      0.032500
    109 H112       82.3866   58.5276   40.2323 dc         1 CLA      0.006600
    110 H111       82.5101   56.8606   40.8057 dc         1 CLA      0.006600
    111 H102       85.0348   57.1067   40.5180 dc         1 CLA      0.024100
    112 H101       84.6484   58.9572   40.1805 dc         1 CLA      0.024100
    113 HHD        70.7436   56.5793   40.9474 da         1 CLA      0.174300
    114 HHC        74.3695   60.5772   44.5491 da         1 CLA      0.136800
    115 HHB        78.6333   61.0429   39.8989 da         1 CLA      0.138300
    116 HBD        74.6469   57.1614   35.4047 dc         1 CLA      0.107700
    117 HAB        77.1172   63.1786   44.5633 da         1 CLA      0.155200
    118 H93        85.7469   57.5173   36.9203 dc         1 CLA      0.069500
    119 H92        86.3418   58.4910   38.3182 dc         1 CLA      0.069500
    120 H91        86.1268   56.7419   38.4360 dc         1 CLA      0.069500
    121 H8         83.7803   58.4432   38.1695 dc         1 CLA      0.029300
    122 H72        82.5778   56.4516   38.5693 dc         1 CLA      0.044400
    123 H71        83.8305   55.4834   38.8391 dc         1 CLA      0.044400
    124 H62        84.3572   56.0447   36.0786 dc         1 CLA      0.015600
    125 H61        82.7368   56.6055   36.1475 dc         1 CLA      0.015600
    126 H52        83.6059   53.8689   37.0881 dc         1 CLA      0.033200
    127 H51        83.1975   54.0916   35.4944 dc         1 CLA      0.033200
    128 H43        79.9638   52.5244   37.0588 dc         1 CLA      0.037000
    129 H42        81.4109   52.0756   36.1045 dc         1 CLA      0.037000
    130 H41        81.6882   52.1281   37.8934 dc         1 CLA      0.037000
    131 H3A        78.7541   60.0173   37.5611 dc         1 CLA      0.041100
    132 H2A        77.9381   57.1791   36.9055 dc         1 CLA      0.083100
    133 H2         80.3822   55.5810   37.6601 da         1 CLA      0.180900
    134 H18        80.2270   59.6410   46.9385 dc         1 CLA     -0.003900
    135 H13        84.8480   57.6384   42.8969 dc         1 CLA      0.019700
    136 H12        79.3755   54.9927   35.0619 dc         1 CLA      0.120400
    137 H11        80.8944   55.4680   34.6427 dc         1 CLA      0.120400
    138 C1         67.5978   61.1458   50.8527 Z1         2 LUT      0.509236
    139 C2         66.2506   60.9093   51.5833 Z2         2 LUT     -0.434695
    140 C3         65.4482   62.2126   51.8354 Z3         2 LUT      0.437453
    141 O3         65.0995   62.4018   53.2064 S1         2 LUT     -0.547129
    142 C4         66.0116   63.4168   51.0974 Z4         2 LUT     -0.468603
    143 C5         66.5679   63.1249   49.7287 Z5         2 LUT      0.279246
    144 C6         67.3604   62.0280   49.5962 Z6         2 LUT     -0.305473
    145 C7         67.6558   61.5114   48.2267 Z7         2 LUT      0.069402
    146 C8         68.6179   61.9275   47.3795 Z8         2 LUT     -0.191631
    147 C9         69.1020   61.5163   46.0871 Z9         2 LUT      0.196698
    148 C10        70.0104   62.3166   45.3799 Y1         2 LUT     -0.208611
    149 C11        70.6014   62.1320   44.0584 Y2         2 LUT      0.030784
    150 C12        71.7649   62.7650   43.7143 Y3         2 LUT     -0.220316
    151 C13        72.5297   62.6443   42.4760 Y4         2 LUT      0.215937
    152 C14        73.7131   63.4372   42.4398 Y5         2 LUT     -0.185793
    153 C15        74.6875   63.6364   41.4304 Y6         2 LUT     -0.057835
    154 C16        68.1340   59.6573   50.5768 Y7         2 LUT     -0.405615
    155 C17        68.4442   61.8277   51.9804 Y7         2 LUT     -0.405615
    156 C18        66.1723   64.0913   48.6732 Y9         2 LUT     -0.369639
    157 C19        68.6140   60.1623   45.5835 W1         2 LUT     -0.333362
    158 C20        71.9447   61.9316   41.3484 W2         2 LUT     -0.323439
    159 C21        85.7441   64.8998   35.1099 Z1         2 LUT      0.406104
    160 C22        86.7631   64.6759   33.9911 Z2         2 LUT     -0.404965
    161 C23        87.0114   65.7732   33.0236 Z3         2 LUT      0.391255
    162 O23        87.7303   65.2443   31.9584 S1         2 LUT     -0.528210
    163 C24        85.7646   66.6308   32.8201 W6         2 LUT     -0.258361
    164 C25        84.5894   66.5160   33.4592 Z5         2 LUT      0.133546
    165 C26        84.4321   65.5210   34.5181 W8         2 LUT     -0.147008
    166 C27        83.5927   66.0857   35.6861 Z7         2 LUT      0.023843
    167 C28        82.4458   65.5564   36.1954 Z8         2 LUT     -0.216987
    168 C29        81.8583   66.1532   37.3797 Z9         2 LUT      0.206524
    169 C30        80.7703   65.4554   37.8700 Y1         2 LUT     -0.215556
    170 C31        80.0688   65.7212   39.0950 Y2         2 LUT      0.025142
    171 C32        78.7808   65.2904   39.2577 Y3         2 LUT     -0.212209
    172 C33        77.9855   65.3031   40.4331 Y4         2 LUT      0.240937
    173 C34        76.7333   64.6497   40.3922 Y5         2 LUT     -0.218862
    174 C35        75.7453   64.5192   41.4245 Y6         2 LUT     -0.023547
    175 C36        86.3721   65.8170   36.1870 Y7         2 LUT     -0.393485
    176 C37        85.3980   63.6110   35.7148 Y7         2 LUT     -0.393485
    177 C38        83.3992   67.3715   33.1027 Y9         2 LUT     -0.387526
    178 C39        82.3216   67.4800   38.0113 W1         2 LUT     -0.322618
    179 C40        78.5673   65.8183   41.7340 W2         2 LUT     -0.358472
    180 H403       79.4081   65.2042   42.1527 R7         2 LUT      0.097720
    181 H402       78.9364   66.7946   41.6688 R7         2 LUT      0.097720
    182 H401       77.8438   65.8283   42.5395 R7         2 LUT      0.097720
    183 H393       81.5943   67.8650   38.7281 R4         2 LUT      0.082505
    184 H392       83.2130   67.3386   38.5409 R4         2 LUT      0.082505
    185 H391       82.3336   68.2735   37.2307 R4         2 LUT      0.082505
    186 H383       83.2744   67.3064   31.9631 R1         2 LUT      0.104030
    187 H382       82.4537   67.0157   33.4905 R1         2 LUT      0.104030
    188 H381       83.5602   68.3927   33.3604 R1         2 LUT      0.104030
    189 H373       84.9392   63.7342   36.7250 T4         2 LUT      0.089537
    190 H372       84.7438   63.0157   35.0615 T4         2 LUT      0.089537
    191 H371       86.3325   63.0546   35.9923 T4         2 LUT      0.089537
    192 H363       86.5384   66.8667   35.9034 T4         2 LUT      0.089537
    193 H362       85.6736   65.8707   37.0228 T4         2 LUT      0.089537
    194 H361       87.4042   65.5711   36.5952 T4         2 LUT      0.089537
    195 H222       87.7420   64.5523   34.4855 U2         2 LUT      0.127376
    196 H221       86.4785   63.8052   33.4594 U2         2 LUT      0.127376
    197 H203       71.0201   62.3270   41.1528 R7         2 LUT      0.087068
    198 H202       72.4016   62.2738   40.4617 R7         2 LUT      0.087068
    199 H201       72.0311   60.8567   41.3656 R7         2 LUT      0.087068
    200 H193       67.6400   60.3208   45.1544 R4         2 LUT      0.089716
    201 H192       69.3131   59.7593   44.8498 R4         2 LUT      0.089716
    202 H191       68.5414   59.3639   46.3553 R4         2 LUT      0.089716
    203 H183       65.7085   65.0312   49.0205 R1         2 LUT      0.094572
    204 H182       66.9685   64.3255   48.0010 R1         2 LUT      0.094572
    205 H181       65.3600   63.5427   48.1328 R1         2 LUT      0.094572
    206 H173       68.0805   62.5910   52.6731 T4         2 LUT      0.093752
    207 H172       68.8791   61.0123   52.5109 T4         2 LUT      0.093752
    208 H171       69.3573   62.3648   51.5841 T4         2 LUT      0.093752
    209 H163       68.2753   59.0865   51.5154 T4         2 LUT      0.093752
    210 H162       67.4079   59.0337   50.0247 T4         2 LUT      0.093752
    211 H161       69.0525   59.7624   50.0462 T4         2 LUT      0.093752
    212 HO3        65.8733   62.5348   53.7142 Q1         2 LUT      0.300121
    213 H8         69.0744   62.8121   47.6814 U7         2 LUT      0.080784
    214 H7         67.0090   60.6768   47.8409 U6         2 LUT      0.042190
    215 H42        65.1215   64.0476   51.0072 U5         2 LUT      0.145166
    216 H41        66.8005   63.9430   51.6635 U5         2 LUT      0.145166
    217 H35        75.8104   65.2008   42.3285 T3         2 LUT      0.077919
    218 H34        76.5496   64.2568   39.4751 T2         2 LUT      0.073626
    219 H32        78.3143   64.6844   38.4054 T1         2 LUT      0.092510
    220 H31        80.5431   66.1194   39.9561 U9         2 LUT      0.070048
    221 H30        80.4123   64.6462   37.2583 U8         2 LUT      0.085442
    222 H3         64.5434   61.9849   51.3214 U3         2 LUT     -0.031596
    223 H28        81.9454   64.7526   35.7391 U7         2 LUT      0.084728
    224 H27        83.9667   67.0099   36.1245 U6         2 LUT      0.087291
    225 H26        83.9722   64.6509   33.9762 Q6         2 LUT      0.075325
    226 H24        85.9272   67.3182   32.0198 Q5         2 LUT      0.094482
    227 H23        87.7067   66.4748   33.4786 U3         2 LUT     -0.024869
    228 H22        65.5675   60.1717   51.0253 U2         2 LUT      0.127376
    229 H21        66.3292   60.3840   52.4902 U2         2 LUT      0.127376
    230 H15        74.5695   63.1238   40.5072 T3         2 LUT      0.093200
    231 H14        74.0728   64.0968   43.2324 T2         2 LUT      0.068865
    232 H12        72.1740   63.4711   44.3773 T1         2 LUT      0.095507
    233 H11        70.1533   61.3389   43.4543 U9         2 LUT      0.068930
    234 H10        70.4979   63.2147   45.7415 U8         2 LUT      0.083911
    235 H1         87.1778   65.1230   31.1314 Q1         2 LUT      0.297311
@<TRIPOS>BOND
    1     6     1 1
    2     7     2 1
    3     8     3 1
    4     9     4 1
    5    11     4 1
    6    12     6 1
    7    13     9 1
    8    16     9 1
    9    25     5 1
   10    25    16 1
   11    26    10 1
   12    26    17 1
   13    27    18 1
   14    28    14 1
   15    28    19 1
   16    29    12 1
   17    30    13 1
   18    31    24 1
   19    32     1 1
   20    32    25 1
   21    33    21 1
   22    33    26 1
   23    34    22 1
   24    34    27 1
   25    35    23 1
   26    35    28 1
   27    36    12 1
   28    36    24 1
   29    37    13 1
   30    37    15 1
   31    38    31 1
   32    39    20 1
   33    39    32 1
   34    40     2 1
   35    40    33 1
   36    41     3 1
   37    41    34 1
   38    42     4 1
   39    42    35 1
   40    43    38 1
   41    44     5 1
   42    44    17 1
   43    44    39 1
   44    45    10 1
   45    45    18 1
   46    45    40 1
   47    46    19 1
   48    46    41 1
   49    47    14 1
   50    47    16 1
   51    47    42 1
   52    48    38 1
   53    49    48 1
   54    50    49 1
   55    51    50 1
   56    52    51 1
   57    53    51 1
   58    54    53 1
   59    55    54 1
   60    56    55 1
   61    57    56 1
   62    58    56 1
   63    59    58 1
   64    60    59 1
   65    61    60 1
   66    62    61 1
   67    63    61 1
   68    64    27 1
   69    64    46 1
   70    65     5 1
   71    65    10 1
   72    65    64 1
   73    65    14 1
   74    66    23 1
   75    67    23 1
   76    68    23 1
   77    69    22 1
   78    70    22 1
   79    71    22 1
   80    72    21 1
   81    73    21 1
   82    74    21 1
   83    75    20 1
   84    76    20 1
   85    77    20 1
   86    78    15 1
   87    79    15 1
   88    80    15 1
   89    81     8 1
   90    82     8 1
   91    83     8 1
   92    84     7 1
   93    85     7 1
   94    86     6 1
   95    87     6 1
   96    88     3 1
   97    89     3 1
   98    90     1 1
   99    91     1 1
  100    92    63 1
  101    93    63 1
  102    94    63 1
  103    95    62 1
  104    96    62 1
  105    97    62 1
  106    98    60 1
  107    99    60 1
  108   100    59 1
  109   101    59 1
  110   102    58 1
  111   103    58 1
  112   104    57 1
  113   105    57 1
  114   106    57 1
  115   107    55 1
  116   108    55 1
  117   109    54 1
  118   110    54 1
  119   111    53 1
  120   112    53 1
  121   113    19 1
  122   114    18 1
  123   115    17 1
  124   116     9 1
  125   117     2 1
  126   118    52 1
  127   119    52 1
  128   120    52 1
  129   121    51 1
  130   122    50 1
  131   123    50 1
  132   124    49 1
  133   125    49 1
  134   126    48 1
  135   127    48 1
  136   128    43 1
  137   129    43 1
  138   130    43 1
  139   131    39 1
  140   132    32 1
  141   133    31 1
  142   134    61 1
  143   135    56 1
  144   136    24 1
  145   137    24 1
  146   139   138 1
  147   140   139 1
  148   141   140 1
  149   142   140 1
  150   143   142 1
  151   144   138 1
  152   144   143 1
  153   145   144 1
  154   146   145 1
  155   147   146 1
  156   148   147 1
  157   149   148 1
  158   150   149 1
  159   151   150 1
  160   152   151 1
  161   153   152 1
  162   154   138 1
  163   155   138 1
  164   156   143 1
  165   157   147 1
  166   158   151 1
  167   160   159 1
  168   161   160 1
  169   162   161 1
  170   163   161 1
  171   164   163 1
  172   165   159 1
  173   165   164 1
  174   166   165 1
  175   167   166 1
  176   168   167 1
  177   169   168 1
  178   170   169 1
  179   171   170 1
  180   172   171 1
  181   173   172 1
  182   174   153 1
  183   174   173 1
  184   175   159 1
  185   176   159 1
  186   177   164 1
  187   178   168 1
  188   179   172 1
  189   180   179 1
  190   181   179 1
  191   182   179 1
  192   183   178 1
  193   184   178 1
  194   185   178 1
  195   186   177 1
  196   187   177 1
  197   188   177 1
  198   189   176 1
  199   190   176 1
  200   191   176 1
  201   192   175 1
  202   193   175 1
  203   194   175 1
  204   195   160 1
  205   196   160 1
  206   197   158 1
  207   198   158 1
  208   199   158 1
  209   200   157 1
  210   201   157 1
  211   202   157 1
  212   203   156 1
  213   204   156 1
  214   205   156 1
  215   206   155 1
  216   207   155 1
  217   208   155 1
  218   209   154 1
  219   210   154 1
  220   211   154 1
  221   212   141 1
  222   213   146 1
  223   214   145 1
  224   215   142 1
  225   216   142 1
  226   217   174 1
  227   218   173 1
  228   219   171 1
  229   220   170 1
  230   221   169 1
  231   222   140 1
  232   223   167 1
  233   224   166 1
  234   225   165 1
  235   226   163 1
  236   227   161 1
  237   228   139 1
  238   229   139 1
  239   230   153 1
  240   231   152 1
  241   232   150 1
  242   233   149 1
  243   234   148 1
  244   235   162 1
  245   65    153 1
  246   65    174 1
@<TRIPOS>SUBSTRUCTURE
      1 CLA               1 ****               0 ****  **** 
      2 LUT             138 ****               0 ****  **** 
