@<TRIPOS>MOLECULE
Cpptraj generated mol2 file.
  235   246     2     0     0
SMALL
USER_CHARGES


@<TRIPOS>ATOM
      1 CAA        77.2547   57.4557   33.3901 a2         1 CLA     -0.055900
      2 CAB        77.0390   61.3596   42.3289 c8         1 CLA     -0.148500
      3 CAC        69.9767   57.5398   41.4359 a2         1 CLA     -0.012600
      4 CAD        72.9144   55.1911   34.2182 ck         1 CLA      0.398800
      5 NA         76.1975   57.7741   36.7657 ns         1 CLA     -0.225500
      6 CBA        78.5022   57.3577   32.5134 a2         1 CLA     -0.135000
      7 CBB        78.0992   62.2026   42.6050 c0         1 CLA     -0.395200
      8 CBC        69.8547   55.9385   41.3014 a3         1 CLA     -0.037700
      9 CBD        74.4960   55.5093   34.0486 a1         1 CLA     -0.053900
     10 NB         76.0326   59.3149   39.3848 nm         1 CLA     -0.295700
     11 OBD        72.1888   54.6675   33.3703 o2         1 CLA     -0.494600
     12 CGA        79.2205   56.0440   32.2624 c4         1 CLA      0.827000
     13 CGD        75.3375   54.2581   33.9748 c4         1 CLA      0.655300
     14 ND         73.3149   57.1952   37.0641 nm         1 CLA     -0.291600
     15 CED        75.6047   52.1287   34.8634 a3         1 CLA      0.005400
     16 CHA        74.8355   56.4129   35.2224 cs         1 CLA     -0.123800
     17 CHB        78.0035   59.1363   37.8593 aa         1 CLA     -0.291900
     18 CHC        74.6262   59.6334   41.2859 aa         1 CLA     -0.090400
     19 CHD        71.3528   57.3096   38.4957 aa         1 CLA     -0.052000
     20 CMA        79.7380   57.1489   36.1052 a3         1 CLA     -0.230700
     21 CMB        79.4302   60.7056   40.1102 a3         1 CLA     -0.180800
     22 CMC        72.3193   58.9323   43.2250 a3         1 CLA     -0.134000
     23 CMD        69.9710   55.7849   36.0305 a3         1 CLA     -0.141100
     24 C1         80.7855   54.4225   33.0751 a2         1 CLA      0.023000
     25 C1A        76.0413   57.0681   35.5449 ac         1 CLA     -0.015100
     26 C1B        77.3625   59.5303   39.0573 cr         1 CLA      0.054700
     27 C1C        73.4499   58.9156   40.8444 cn         1 CLA     -0.005600
     28 C1D        71.9879   56.9272   37.2978 ap         1 CLA     -0.047300
     29 O1A        78.9458   55.2815   31.3268 o2         1 CLA     -0.610800
     30 O1D        76.3146   54.1137   33.2074 o2         1 CLA     -0.558200
     31 C2         81.6018   54.3243   34.3471 c8         1 CLA     -0.325100
     32 C2A        77.3953   56.9383   34.8566 a1         1 CLA      0.098600
     33 C2B        78.0007   60.3478   40.0855 cb         1 CLA      0.088500
     34 C2C        72.3086   58.6248   41.7603 cb         1 CLA      0.053700
     35 C2D        71.3989   56.1965   36.2216 cb         1 CLA      0.058900
     36 O2A        80.1341   55.7610   33.2194 o1         1 CLA     -0.437200
     37 O2D        74.6733   53.2573   34.7026 o1         1 CLA     -0.357600
     38 C3         81.9203   53.1287   34.8936 c5         1 CLA      0.031200
     39 C3A        78.4160   57.8184   35.6869 a1         1 CLA      0.166800
     40 C3B        76.9896   60.6104   41.0627 cb         1 CLA      0.035000
     41 C3C        71.2896   58.0970   40.9167 cb         1 CLA     -0.089900
     42 C3D        72.5009   55.8897   35.4080 cb         1 CLA     -0.035900
     43 C4         80.9808   52.4293   35.8883 a3         1 CLA     -0.053300
     44 C4A        77.5056   58.2904   36.8525 ac         1 CLA      0.001800
     45 C4B        75.8053   59.8833   40.5804 cn         1 CLA     -0.020900
     46 C4C        71.9159   57.9511   39.6137 cr         1 CLA     -0.044400
     47 C4D        73.6234   56.5675   35.9207 c6         1 CLA     -0.046000
     48 C5         83.2416   52.4954   34.6740 a2         1 CLA     -0.070400
     49 C6         84.3395   53.5079   35.0966 a2         1 CLA      0.043900
     50 C7         84.3928   53.6605   36.6077 a2         1 CLA     -0.150000
     51 C8         84.9219   55.0477   37.0850 a1         1 CLA      0.064200
     52 C9         86.5181   55.2476   36.9494 a3         1 CLA     -0.259300
     53 C10        84.6451   55.2677   38.6795 a2         1 CLA     -0.071900
     54 C11        83.1365   55.4305   39.0930 a2         1 CLA      0.014500
     55 C12        83.0525   55.5397   40.5820 a2         1 CLA     -0.112100
     56 C13        81.6336   55.6672   41.1869 a1         1 CLA      0.089200
     57 C14        80.5801   56.4108   40.3201 a3         1 CLA     -0.239100
     58 C15        81.7418   56.3430   42.6435 a2         1 CLA     -0.102200
     59 C16        81.8649   57.8797   42.6602 a2         1 CLA      0.023900
     60 C17        82.1714   58.3921   44.0665 a2         1 CLA     -0.105700
     61 C18        82.3017   59.9723   44.2416 a1         1 CLA      0.206800
     62 C19        80.9103   60.7312   44.1939 a3         1 CLA     -0.280100
     63 C20        83.0964   60.1592   45.5021 a3         1 CLA     -0.280100
     64 NC         73.1785   58.4772   39.5981 nx         1 CLA     -0.309200
     65 MG         74.6241   58.3557   38.0588 mg         1 CLA      0.895000
     66 HMD3       69.5919   55.4647   36.9822 dc         1 CLA      0.064300
     67 HMD2       69.3500   56.6881   35.7183 dc         1 CLA      0.064300
     68 HMD1       69.9396   54.9149   35.3773 dc         1 CLA      0.064300
     69 HMC3       73.3062   58.6705   43.7374 dc         1 CLA      0.052100
     70 HMC2       72.4214   60.1062   43.2996 dc         1 CLA      0.052100
     71 HMC1       71.4839   58.5595   43.7894 dc         1 CLA      0.052100
     72 HMB3       79.8711   60.3732   39.1961 dc         1 CLA      0.063600
     73 HMB2       79.4272   61.7706   40.1070 dc         1 CLA      0.063600
     74 HMB1       80.0138   60.2507   40.8748 dc         1 CLA      0.063600
     75 HMA3       80.3537   57.7113   36.8554 dc         1 CLA      0.058300
     76 HMA2       79.6802   56.1800   36.4709 dc         1 CLA      0.058300
     77 HMA1       80.4245   57.1587   35.2565 dc         1 CLA      0.058300
     78 HED3       75.1255   51.4485   35.5707 dc         1 CLA      0.079300
     79 HED2       75.8510   51.5424   33.9672 dc         1 CLA      0.079300
     80 HED1       76.5314   52.4399   35.3018 dc         1 CLA      0.079300
     81 HBC3       70.7049   55.3470   41.6506 dc         1 CLA      0.016300
     82 HBC2       68.9940   55.6703   41.9172 dc         1 CLA      0.016300
     83 HBC1       69.6410   55.5387   40.2625 dc         1 CLA      0.016300
     84 HBB2       78.1173   62.7095   43.5539 da         1 CLA      0.183000
     85 HBB1       78.9763   62.4216   41.9235 da         1 CLA      0.183000
     86 HBA2       78.2733   57.7813   31.4614 dc         1 CLA      0.029400
     87 HBA1       79.2275   57.9992   33.0804 dc         1 CLA      0.029400
     88 HAC2       69.9155   57.6778   42.5478 dc         1 CLA      0.029300
     89 HAC1       69.1008   57.9941   40.8929 dc         1 CLA      0.029300
     90 HAA2       76.3982   56.9610   32.9940 dc         1 CLA      0.028700
     91 HAA1       76.9826   58.5007   33.4721 dc         1 CLA      0.028700
     92 H203       82.5157   59.9215   46.4094 dc         1 CLA      0.065600
     93 H202       84.0467   59.6309   45.4570 dc         1 CLA      0.065600
     94 H201       83.3845   61.2330   45.6698 dc         1 CLA      0.065600
     95 H193       80.4934   60.7133   43.1943 dc         1 CLA      0.065600
     96 H192       80.2082   60.3130   44.9270 dc         1 CLA      0.065600
     97 H191       80.9992   61.7423   44.5448 dc         1 CLA      0.065600
     98 H172       81.5053   58.1006   44.8125 dc         1 CLA      0.027600
     99 H171       83.1115   57.8913   44.3400 dc         1 CLA      0.027600
    100 H162       82.5656   58.3752   41.9257 dc         1 CLA      0.002900
    101 H161       80.8848   58.3154   42.4576 dc         1 CLA      0.002900
    102 H152       80.8466   56.0497   43.1114 dc         1 CLA      0.029100
    103 H151       82.6170   55.9066   43.1160 dc         1 CLA      0.029100
    104 H143       81.0291   57.3767   40.0321 dc         1 CLA      0.063600
    105 H142       80.4790   55.8360   39.4169 dc         1 CLA      0.063600
    106 H141       79.5836   56.5869   40.8271 dc         1 CLA      0.063600
    107 H122       83.5139   54.6645   41.1038 dc         1 CLA      0.032500
    108 H121       83.5349   56.4729   40.8396 dc         1 CLA      0.032500
    109 H112       82.8300   56.3221   38.5276 dc         1 CLA      0.006600
    110 H111       82.5790   54.5920   38.8460 dc         1 CLA      0.006600
    111 H102       85.0947   54.5699   39.3235 dc         1 CLA      0.024100
    112 H101       85.1282   56.1872   39.0272 dc         1 CLA      0.024100
    113 HHD        70.2914   57.0534   38.5455 da         1 CLA      0.174300
    114 HHC        74.7432   59.8526   42.3343 da         1 CLA      0.136800
    115 HHB        79.0635   59.4749   37.5325 da         1 CLA      0.138300
    116 HBD        74.4615   56.0343   33.1253 dc         1 CLA      0.107700
    117 HAB        76.2976   61.2016   43.1357 da         1 CLA      0.155200
    118 H93        87.0069   54.2887   37.2886 dc         1 CLA      0.069500
    119 H92        86.7733   55.2786   35.9123 dc         1 CLA      0.069500
    120 H91        86.9434   56.1460   37.4657 dc         1 CLA      0.069500
    121 H8         84.4723   55.8498   36.4969 dc         1 CLA      0.029300
    122 H72        83.3763   53.6392   36.9380 dc         1 CLA      0.044400
    123 H71        85.0308   52.8233   36.9542 dc         1 CLA      0.044400
    124 H62        85.2470   53.0149   34.8320 dc         1 CLA      0.015600
    125 H61        84.2601   54.5006   34.5775 dc         1 CLA      0.015600
    126 H52        83.4332   51.6054   35.2683 dc         1 CLA      0.033200
    127 H51        83.2765   52.3024   33.6237 dc         1 CLA      0.033200
    128 H43        79.9605   52.8647   35.5809 dc         1 CLA      0.037000
    129 H42        81.0559   51.3056   35.9244 dc         1 CLA      0.037000
    130 H41        81.1344   52.8474   36.8977 dc         1 CLA      0.037000
    131 H3A        78.7833   58.6973   35.0810 dc         1 CLA      0.041100
    132 H2A        77.7231   55.9441   34.8738 dc         1 CLA      0.083100
    133 H2         81.8858   55.2419   34.9745 da         1 CLA      0.180900
    134 H18        82.7933   60.2018   43.2808 dc         1 CLA     -0.003900
    135 H13        81.1717   54.7126   41.3976 dc         1 CLA      0.019700
    136 H12        80.1261   53.5887   32.9109 dc         1 CLA      0.120400
    137 H11        81.4848   54.3753   32.2437 dc         1 CLA      0.120400
    138 C1         67.5356   60.8380   48.4062 Z1         2 LUT      0.509236
    139 C2         66.1659   60.4860   49.0917 Z2         2 LUT     -0.434695
    140 C3         65.3560   61.6991   49.6322 Z3         2 LUT      0.437453
    141 O3         65.6853   61.9942   50.9889 S1         2 LUT     -0.547129
    142 C4         65.7033   63.0300   48.8730 Z4         2 LUT     -0.468603
    143 C5         66.2467   62.7785   47.4831 Z5         2 LUT      0.279246
    144 C6         67.2303   61.8248   47.3782 Z6         2 LUT     -0.305473
    145 C7         67.5990   61.2530   46.0602 Z7         2 LUT      0.069402
    146 C8         68.3970   61.8672   45.1310 Z8         2 LUT     -0.191631
    147 C9         68.8888   61.2845   43.9118 Z9         2 LUT      0.196698
    148 C10        69.9085   61.9567   43.3340 Y1         2 LUT     -0.208611
    149 C11        70.6628   61.7330   42.0932 Y2         2 LUT      0.030784
    150 C12        71.7221   62.4785   41.7258 Y3         2 LUT     -0.220316
    151 C13        72.4743   62.2131   40.5475 Y4         2 LUT      0.215937
    152 C14        73.6460   62.8806   40.4079 Y5         2 LUT     -0.185793
    153 C15        74.6612   62.7417   39.4771 Y6         2 LUT     -0.057835
    154 C16        68.0700   59.3612   48.1227 Y7         2 LUT     -0.405615
    155 C17        68.5513   61.3660   49.4687 Y7         2 LUT     -0.405615
    156 C18        65.4536   63.3756   46.3108 Y9         2 LUT     -0.369639
    157 C19        68.1800   60.1091   43.3114 W1         2 LUT     -0.333362
    158 C20        71.8091   61.4557   39.3399 W2         2 LUT     -0.323439
    159 C21        86.4534   64.2686   34.0224 Z1         2 LUT      0.406104
    160 C22        87.4705   63.7684   32.9316 Z2         2 LUT     -0.404965
    161 C23        87.6484   64.8980   31.8693 Z3         2 LUT      0.391255
    162 O23        88.3162   64.3256   30.7120 S1         2 LUT     -0.528210
    163 C24        86.3732   65.6392   31.5248 W6         2 LUT     -0.258361
    164 C25        85.2490   65.5124   32.1864 Z5         2 LUT      0.133546
    165 C26        85.0838   64.5989   33.3985 W8         2 LUT     -0.147008
    166 C27        84.0726   65.2205   34.4485 Z7         2 LUT      0.023843
    167 C28        82.8483   64.7610   34.8779 Z8         2 LUT     -0.216987
    168 C29        82.0504   65.2224   35.9883 Z9         2 LUT      0.206524
    169 C30        81.0918   64.4348   36.4794 Y1         2 LUT     -0.215556
    170 C31        80.1600   64.7688   37.5652 Y2         2 LUT      0.025142
    171 C32        79.0375   64.0035   37.7015 Y3         2 LUT     -0.212209
    172 C33        78.0106   64.2378   38.6416 Y4         2 LUT      0.240937
    173 C34        76.8488   63.4982   38.6548 Y5         2 LUT     -0.218862
    174 C35        75.7552   63.5296   39.5591 Y6         2 LUT     -0.023547
    175 C36        87.1773   65.5488   34.7940 Y7         2 LUT     -0.393485
    176 C37        86.4241   63.2513   35.1261 Y7         2 LUT     -0.393485
    177 C38        84.0663   66.2749   31.7033 Y9         2 LUT     -0.387526
    178 C39        82.3606   66.6478   36.4395 W1         2 LUT     -0.322618
    179 C40        78.3592   65.0550   39.7801 W2         2 LUT     -0.358472
    180 H403       79.3768   65.0632   40.0318 R7         2 LUT      0.097720
    181 H402       78.2664   66.1249   39.5173 R7         2 LUT      0.097720
    182 H401       77.7778   64.9362   40.7015 R7         2 LUT      0.097720
    183 H393       82.2475   67.4072   35.6821 R4         2 LUT      0.082505
    184 H392       81.8056   67.1601   37.2339 R4         2 LUT      0.082505
    185 H391       83.4153   66.8171   36.7791 R4         2 LUT      0.082505
    186 H383       84.0363   67.1894   32.2851 R1         2 LUT      0.104030
    187 H382       84.0984   66.4617   30.5752 R1         2 LUT      0.104030
    188 H381       83.0897   65.7786   31.8519 R1         2 LUT      0.104030
    189 H373       85.9496   62.3324   34.7540 T4         2 LUT      0.089537
    190 H372       87.3374   62.9440   35.5415 T4         2 LUT      0.089537
    191 H371       85.8282   63.6446   35.9809 T4         2 LUT      0.089537
    192 H363       88.2579   65.3502   34.9764 T4         2 LUT      0.089537
    193 H362       87.1782   66.4125   34.1757 T4         2 LUT      0.089537
    194 H361       86.5858   65.7594   35.7034 T4         2 LUT      0.089537
    195 H222       88.5544   63.8021   33.3736 U2         2 LUT      0.127376
    196 H221       87.1993   62.8339   32.4757 U2         2 LUT      0.127376
    197 H203       70.9421   62.0405   38.9523 R7         2 LUT      0.087068
    198 H202       72.3711   61.1732   38.4601 R7         2 LUT      0.087068
    199 H201       71.4689   60.5083   39.5888 R7         2 LUT      0.087068
    200 H193       68.6702   59.2184   43.5799 R4         2 LUT      0.089716
    201 H192       67.2230   60.0244   43.6867 R4         2 LUT      0.089716
    202 H191       68.0420   60.1724   42.2137 R4         2 LUT      0.089716
    203 H183       64.4418   63.2713   46.4624 R1         2 LUT      0.094572
    204 H182       65.6293   64.4413   46.2890 R1         2 LUT      0.094572
    205 H181       65.7402   62.9830   45.3512 R1         2 LUT      0.094572
    206 H173       68.5314   60.7595   50.3934 T4         2 LUT      0.093752
    207 H172       69.5412   61.5815   49.1368 T4         2 LUT      0.093752
    208 H171       68.1335   62.3695   49.7308 T4         2 LUT      0.093752
    209 H163       68.9950   59.3654   47.5514 T4         2 LUT      0.093752
    210 H162       68.3133   58.8579   49.1082 T4         2 LUT      0.093752
    211 H161       67.3760   58.6563   47.6913 T4         2 LUT      0.093752
    212 HO3        65.3708   61.3185   51.5941 Q1         2 LUT      0.300121
    213 H8         68.8235   62.7543   45.5752 U7         2 LUT      0.080784
    214 H7         67.1584   60.3671   45.9267 U6         2 LUT      0.042190
    215 H42        64.7862   63.6640   48.8363 U5         2 LUT      0.145166
    216 H41        66.3571   63.6487   49.4863 U5         2 LUT      0.145166
    217 H35        75.7598   64.3960   40.2635 T3         2 LUT      0.077919
    218 H34        76.8363   62.7408   37.8843 T2         2 LUT      0.073626
    219 H32        78.8556   63.1717   36.9720 T1         2 LUT      0.092510
    220 H31        80.3922   65.6543   38.2030 U9         2 LUT      0.070048
    221 H30        80.9324   63.4543   36.0020 U8         2 LUT      0.085442
    222 H3         64.3149   61.3234   49.5407 U3         2 LUT     -0.031596
    223 H28        82.5163   63.8242   34.4944 U7         2 LUT      0.084728
    224 H27        84.4836   66.1628   34.8130 U6         2 LUT      0.087291
    225 H26        84.6410   63.6237   33.0696 Q6         2 LUT      0.075325
    226 H24        86.5280   66.4088   30.7294 Q5         2 LUT      0.094482
    227 H23        88.3950   65.6034   32.3846 U3         2 LUT     -0.024869
    228 H22        65.5405   60.0365   48.3548 U2         2 LUT      0.127376
    229 H21        66.2879   59.7706   49.9267 U2         2 LUT      0.127376
    230 H15        74.6112   61.9395   38.7532 T3         2 LUT      0.093200
    231 H14        73.8794   63.5660   41.2200 T2         2 LUT      0.068865
    232 H12        72.0331   63.1680   42.4824 T1         2 LUT      0.095507
    233 H11        70.2543   60.9422   41.3959 U9         2 LUT      0.068930
    234 H10        70.3931   62.7916   43.8944 U8         2 LUT      0.083911
    235 H1         87.7255   63.9537   30.0460 Q1         2 LUT      0.297311
@<TRIPOS>BOND
    1     6     1 1
    2     7     2 1
    3     8     3 1
    4     9     4 1
    5    11     4 1
    6    12     6 1
    7    13     9 1
    8    16     9 1
    9    25     5 1
   10    25    16 1
   11    26    10 1
   12    26    17 1
   13    27    18 1
   14    28    14 1
   15    28    19 1
   16    29    12 1
   17    30    13 1
   18    31    24 1
   19    32     1 1
   20    32    25 1
   21    33    21 1
   22    33    26 1
   23    34    22 1
   24    34    27 1
   25    35    23 1
   26    35    28 1
   27    36    12 1
   28    36    24 1
   29    37    13 1
   30    37    15 1
   31    38    31 1
   32    39    20 1
   33    39    32 1
   34    40     2 1
   35    40    33 1
   36    41     3 1
   37    41    34 1
   38    42     4 1
   39    42    35 1
   40    43    38 1
   41    44     5 1
   42    44    17 1
   43    44    39 1
   44    45    10 1
   45    45    18 1
   46    45    40 1
   47    46    19 1
   48    46    41 1
   49    47    14 1
   50    47    16 1
   51    47    42 1
   52    48    38 1
   53    49    48 1
   54    50    49 1
   55    51    50 1
   56    52    51 1
   57    53    51 1
   58    54    53 1
   59    55    54 1
   60    56    55 1
   61    57    56 1
   62    58    56 1
   63    59    58 1
   64    60    59 1
   65    61    60 1
   66    62    61 1
   67    63    61 1
   68    64    27 1
   69    64    46 1
   70    65     5 1
   71    65    10 1
   72    65    64 1
   73    65    14 1
   74    66    23 1
   75    67    23 1
   76    68    23 1
   77    69    22 1
   78    70    22 1
   79    71    22 1
   80    72    21 1
   81    73    21 1
   82    74    21 1
   83    75    20 1
   84    76    20 1
   85    77    20 1
   86    78    15 1
   87    79    15 1
   88    80    15 1
   89    81     8 1
   90    82     8 1
   91    83     8 1
   92    84     7 1
   93    85     7 1
   94    86     6 1
   95    87     6 1
   96    88     3 1
   97    89     3 1
   98    90     1 1
   99    91     1 1
  100    92    63 1
  101    93    63 1
  102    94    63 1
  103    95    62 1
  104    96    62 1
  105    97    62 1
  106    98    60 1
  107    99    60 1
  108   100    59 1
  109   101    59 1
  110   102    58 1
  111   103    58 1
  112   104    57 1
  113   105    57 1
  114   106    57 1
  115   107    55 1
  116   108    55 1
  117   109    54 1
  118   110    54 1
  119   111    53 1
  120   112    53 1
  121   113    19 1
  122   114    18 1
  123   115    17 1
  124   116     9 1
  125   117     2 1
  126   118    52 1
  127   119    52 1
  128   120    52 1
  129   121    51 1
  130   122    50 1
  131   123    50 1
  132   124    49 1
  133   125    49 1
  134   126    48 1
  135   127    48 1
  136   128    43 1
  137   129    43 1
  138   130    43 1
  139   131    39 1
  140   132    32 1
  141   133    31 1
  142   134    61 1
  143   135    56 1
  144   136    24 1
  145   137    24 1
  146   139   138 1
  147   140   139 1
  148   141   140 1
  149   142   140 1
  150   143   142 1
  151   144   138 1
  152   144   143 1
  153   145   144 1
  154   146   145 1
  155   147   146 1
  156   148   147 1
  157   149   148 1
  158   150   149 1
  159   151   150 1
  160   152   151 1
  161   153   152 1
  162   154   138 1
  163   155   138 1
  164   156   143 1
  165   157   147 1
  166   158   151 1
  167   160   159 1
  168   161   160 1
  169   162   161 1
  170   163   161 1
  171   164   163 1
  172   165   159 1
  173   165   164 1
  174   166   165 1
  175   167   166 1
  176   168   167 1
  177   169   168 1
  178   170   169 1
  179   171   170 1
  180   172   171 1
  181   173   172 1
  182   174   153 1
  183   174   173 1
  184   175   159 1
  185   176   159 1
  186   177   164 1
  187   178   168 1
  188   179   172 1
  189   180   179 1
  190   181   179 1
  191   182   179 1
  192   183   178 1
  193   184   178 1
  194   185   178 1
  195   186   177 1
  196   187   177 1
  197   188   177 1
  198   189   176 1
  199   190   176 1
  200   191   176 1
  201   192   175 1
  202   193   175 1
  203   194   175 1
  204   195   160 1
  205   196   160 1
  206   197   158 1
  207   198   158 1
  208   199   158 1
  209   200   157 1
  210   201   157 1
  211   202   157 1
  212   203   156 1
  213   204   156 1
  214   205   156 1
  215   206   155 1
  216   207   155 1
  217   208   155 1
  218   209   154 1
  219   210   154 1
  220   211   154 1
  221   212   141 1
  222   213   146 1
  223   214   145 1
  224   215   142 1
  225   216   142 1
  226   217   174 1
  227   218   173 1
  228   219   171 1
  229   220   170 1
  230   221   169 1
  231   222   140 1
  232   223   167 1
  233   224   166 1
  234   225   165 1
  235   226   163 1
  236   227   161 1
  237   228   139 1
  238   229   139 1
  239   230   153 1
  240   231   152 1
  241   232   150 1
  242   233   149 1
  243   234   148 1
  244   235   162 1
  245   65    153 1
  246   65    174 1
@<TRIPOS>SUBSTRUCTURE
      1 CLA               1 ****               0 ****  **** 
      2 LUT             138 ****               0 ****  **** 
