@<TRIPOS>MOLECULE
Cpptraj generated mol2 file.
  235   246     2     0     0
SMALL
USER_CHARGES


@<TRIPOS>ATOM
      1 CAA        78.3212   57.6626   34.8111 a2         1 CLA     -0.055900
      2 CAB        77.8268   61.1413   43.8219 c8         1 CLA     -0.148500
      3 CAC        71.3817   56.4023   43.0401 a2         1 CLA     -0.012600
      4 CAD        74.5583   54.4919   35.7316 ck         1 CLA      0.398800
      5 NA         77.3392   57.6985   38.1437 ns         1 CLA     -0.225500
      6 CBA        79.6454   57.7286   34.0053 a2         1 CLA     -0.135000
      7 CBB        78.9491   61.3624   44.5295 c0         1 CLA     -0.395200
      8 CBC        71.6780   54.8908   42.9603 a3         1 CLA     -0.037700
      9 CBD        75.9536   55.1671   35.5696 a1         1 CLA     -0.053900
     10 NB         76.9320   59.3292   40.6393 nm         1 CLA     -0.295700
     11 OBD        74.0688   53.7348   34.8930 o2         1 CLA     -0.494600
     12 CGA        80.4254   56.4467   33.6320 c4         1 CLA      0.827000
     13 CGD        77.0556   54.1234   35.4814 c4         1 CLA      0.655300
     14 ND         74.6263   56.4389   38.6726 nm         1 CLA     -0.291600
     15 CED        78.2424   52.4268   36.6652 a3         1 CLA      0.005400
     16 CHA        76.1049   56.1636   36.7407 cs         1 CLA     -0.123800
     17 CHB        78.9518   59.3441   39.1792 aa         1 CLA     -0.291900
     18 CHC        75.5762   59.3442   42.7006 aa         1 CLA     -0.090400
     19 CHD        72.7529   56.3162   40.1418 aa         1 CLA     -0.052000
     20 CMA        80.5793   56.9972   37.7267 a3         1 CLA     -0.230700
     21 CMB        80.0719   61.2616   41.2985 a3         1 CLA     -0.180800
     22 CMC        73.2491   58.5365   44.7330 a3         1 CLA     -0.134000
     23 CMD        71.6060   54.3353   37.7824 a3         1 CLA     -0.141100
     24 C1         82.0148   54.7469   34.5377 a2         1 CLA      0.023000
     25 C1A        77.2454   56.9402   37.0373 ac         1 CLA     -0.015100
     26 C1B        78.1982   59.7530   40.3151 cr         1 CLA      0.054700
     27 C1C        74.4677   58.4403   42.4586 cn         1 CLA     -0.005600
     28 C1D        73.3443   56.0702   38.8678 ap         1 CLA     -0.047300
     29 O1A        80.3072   55.8478   32.5893 o2         1 CLA     -0.610800
     30 O1D        78.0054   54.2085   34.6834 o2         1 CLA     -0.558200
     31 C2         82.8256   54.6523   35.8231 c8         1 CLA     -0.325100
     32 C2A        78.5575   57.0876   36.2026 a1         1 CLA      0.098600
     33 C2B        78.7296   60.6452   41.3011 cb         1 CLA      0.088500
     34 C2C        73.4354   57.9883   43.3695 cb         1 CLA      0.053700
     35 C2D        72.8787   55.1614   37.8448 cb         1 CLA      0.058900
     36 O2A        81.2060   55.9433   34.6740 o1         1 CLA     -0.437200
     37 O2D        77.0251   53.1729   36.4212 o1         1 CLA     -0.357600
     38 C3         82.8878   53.6492   36.6298 c5         1 CLA      0.031200
     39 C3A        79.5126   57.8946   37.1072 a1         1 CLA      0.166800
     40 C3B        77.7659   60.6146   42.3828 cb         1 CLA      0.035000
     41 C3C        72.6004   57.1805   42.5771 cb         1 CLA     -0.089900
     42 C3D        73.9912   55.1254   36.9414 cb         1 CLA     -0.035900
     43 C4         81.9466   53.4046   37.8645 a3         1 CLA     -0.053300
     44 C4A        78.5390   58.4372   38.1841 ac         1 CLA      0.001800
     45 C4B        76.6819   59.7387   41.9265 cn         1 CLA     -0.020900
     46 C4C        73.2206   57.0619   41.2495 cr         1 CLA     -0.044400
     47 C4D        74.9645   55.9705   37.5257 c6         1 CLA     -0.046000
     48 C5         84.1659   52.8056   36.5440 a2         1 CLA     -0.070400
     49 C6         85.4393   53.5871   36.9333 a2         1 CLA      0.043900
     50 C7         85.2993   54.1218   38.3907 a2         1 CLA     -0.150000
     51 C8         86.3149   55.2235   38.7817 a1         1 CLA      0.064200
     52 C9         87.7937   54.8133   38.6075 a3         1 CLA     -0.259300
     53 C10        86.1283   55.5918   40.3028 a2         1 CLA     -0.071900
     54 C11        84.8447   56.4283   40.6365 a2         1 CLA      0.014500
     55 C12        85.0094   57.3785   41.8798 a2         1 CLA     -0.112100
     56 C13        85.2471   56.6670   43.2470 a1         1 CLA      0.089200
     57 C14        84.2234   55.4649   43.5438 a3         1 CLA     -0.239100
     58 C15        85.1872   57.6279   44.4792 a2         1 CLA     -0.102200
     59 C16        84.1104   58.7468   44.5021 a2         1 CLA      0.023900
     60 C17        84.1504   59.5760   45.7575 a2         1 CLA     -0.105700
     61 C18        82.8659   60.4117   46.1147 a1         1 CLA      0.206800
     62 C19        81.5641   59.5947   46.2951 a3         1 CLA     -0.280100
     63 C20        83.0941   61.3726   47.3281 a3         1 CLA     -0.280100
     64 NC         74.3690   57.7926   41.2197 nx         1 CLA     -0.309200
     65 MG         75.7301   57.9375   39.6664 mg         1 CLA      0.895000
     66 HMD3       71.6611   53.5285   37.0841 dc         1 CLA      0.064300
     67 HMD2       71.5234   53.9655   38.7511 dc         1 CLA      0.064300
     68 HMD1       70.8723   55.0580   37.5673 dc         1 CLA      0.064300
     69 HMC3       72.5766   57.9512   45.3438 dc         1 CLA      0.052100
     70 HMC2       74.1749   58.5465   45.2884 dc         1 CLA      0.052100
     71 HMC1       72.7686   59.4767   44.5348 dc         1 CLA      0.052100
     72 HMB3       80.1947   61.8615   42.1514 dc         1 CLA      0.063600
     73 HMB2       80.8203   60.5171   41.4817 dc         1 CLA      0.063600
     74 HMB1       80.3011   61.8283   40.3755 dc         1 CLA      0.063600
     75 HMA3       81.1482   57.4437   38.5088 dc         1 CLA      0.058300
     76 HMA2       80.0166   56.1544   38.1598 dc         1 CLA      0.058300
     77 HMA1       81.1047   56.6193   36.9037 dc         1 CLA      0.058300
     78 HED3       78.6511   52.1276   35.6997 dc         1 CLA      0.079300
     79 HED2       78.9995   53.1324   37.1116 dc         1 CLA      0.079300
     80 HED1       78.2380   51.5155   37.2515 dc         1 CLA      0.079300
     81 HBC3       71.4249   54.5341   41.9875 dc         1 CLA      0.016300
     82 HBC2       72.6940   54.6014   43.2239 dc         1 CLA      0.016300
     83 HBC1       70.9542   54.3015   43.5355 dc         1 CLA      0.016300
     84 HBB2       78.9480   61.7363   45.5973 da         1 CLA      0.183000
     85 HBB1       80.0190   61.2501   44.2231 da         1 CLA      0.183000
     86 HBA2       79.4876   58.2147   33.0447 dc         1 CLA      0.029400
     87 HBA1       80.3589   58.2345   34.6276 dc         1 CLA      0.029400
     88 HAC2       71.1293   56.6592   44.0179 dc         1 CLA      0.029300
     89 HAC1       70.6012   56.6266   42.3534 dc         1 CLA      0.029300
     90 HAA2       77.6356   57.1155   34.1092 dc         1 CLA      0.028700
     91 HAA1       77.9783   58.6902   34.9912 dc         1 CLA      0.028700
     92 H203       82.5948   62.3589   47.2430 dc         1 CLA      0.065600
     93 H202       82.7507   60.8830   48.2640 dc         1 CLA      0.065600
     94 H201       84.1154   61.7126   47.4113 dc         1 CLA      0.065600
     95 H193       80.6959   60.2906   46.5637 dc         1 CLA      0.065600
     96 H192       81.4090   59.1681   45.3515 dc         1 CLA      0.065600
     97 H191       81.6953   58.8523   47.0510 dc         1 CLA      0.065600
     98 H172       84.3613   59.0420   46.6641 dc         1 CLA      0.027600
     99 H171       84.8901   60.3047   45.6740 dc         1 CLA      0.027600
    100 H162       84.2807   59.4328   43.6758 dc         1 CLA      0.002900
    101 H161       83.1488   58.2134   44.2734 dc         1 CLA      0.002900
    102 H152       85.1619   56.9831   45.3040 dc         1 CLA      0.029100
    103 H151       86.1401   58.0766   44.5097 dc         1 CLA      0.029100
    104 H143       83.1777   55.7527   43.6770 dc         1 CLA      0.063600
    105 H142       84.4510   54.5942   42.8492 dc         1 CLA      0.063600
    106 H141       84.4580   55.0684   44.5333 dc         1 CLA      0.063600
    107 H122       85.8300   57.9750   41.6205 dc         1 CLA      0.032500
    108 H121       84.0627   57.9075   41.9355 dc         1 CLA      0.032500
    109 H112       84.6057   57.0820   39.7730 dc         1 CLA      0.006600
    110 H111       84.1073   55.6736   40.7348 dc         1 CLA      0.006600
    111 H102       86.1865   54.8369   41.0743 dc         1 CLA      0.024100
    112 H101       86.9746   56.2991   40.6365 dc         1 CLA      0.024100
    113 HHD        71.7103   55.8064   40.3120 da         1 CLA      0.174300
    114 HHC        75.5899   59.7405   43.7401 da         1 CLA      0.136800
    115 HHB        79.9599   59.7605   39.0686 da         1 CLA      0.138300
    116 HBD        75.9504   55.7251   34.5842 dc         1 CLA      0.107700
    117 HAB        76.9331   61.2527   44.3237 da         1 CLA      0.155200
    118 H93        88.4402   55.5972   39.0298 dc         1 CLA      0.069500
    119 H92        88.0471   53.8225   39.0634 dc         1 CLA      0.069500
    120 H91        88.0444   54.7802   37.5471 dc         1 CLA      0.069500
    121 H8         86.1707   56.1201   38.3277 dc         1 CLA      0.029300
    122 H72        84.3205   54.5693   38.5951 dc         1 CLA      0.044400
    123 H71        85.4486   53.3755   39.1575 dc         1 CLA      0.044400
    124 H62        86.2913   52.9413   36.8480 dc         1 CLA      0.015600
    125 H61        85.6099   54.4480   36.2458 dc         1 CLA      0.015600
    126 H52        84.1857   51.9657   37.2797 dc         1 CLA      0.033200
    127 H51        84.2702   52.4303   35.4900 dc         1 CLA      0.033200
    128 H43        81.5444   52.3524   37.7532 dc         1 CLA      0.037000
    129 H42        82.5805   53.3115   38.7841 dc         1 CLA      0.037000
    130 H41        81.2417   54.1622   38.1032 dc         1 CLA      0.037000
    131 H3A        79.9960   58.6577   36.5269 dc         1 CLA      0.041100
    132 H2A        79.0197   56.0688   36.0181 dc         1 CLA      0.083100
    133 H2         83.4808   55.5189   36.0383 da         1 CLA      0.180900
    134 H18        82.6281   61.0638   45.3209 dc         1 CLA     -0.003900
    135 H13        86.2837   56.2360   43.3003 dc         1 CLA      0.019700
    136 H12        81.3184   53.8419   34.4170 dc         1 CLA      0.120400
    137 H11        82.6282   54.8027   33.6295 dc         1 CLA      0.120400
    138 C1         68.4494   60.8477   50.5183 Z1         2 LUT      0.509236
    139 C2         67.1306   60.5281   51.2264 Z2         2 LUT     -0.434695
    140 C3         66.0941   61.6722   51.4548 Z3         2 LUT      0.437453
    141 O3         66.5020   62.2256   52.6889 S1         2 LUT     -0.547129
    142 C4         66.0856   62.7078   50.3022 Z4         2 LUT     -0.468603
    143 C5         66.9935   62.4429   49.1198 Z5         2 LUT      0.279246
    144 C6         68.0794   61.6541   49.1460 Z6         2 LUT     -0.305473
    145 C7         68.6524   61.1545   47.8140 Z7         2 LUT      0.069402
    146 C8         69.2961   61.7050   46.7293 Z8         2 LUT     -0.191631
    147 C9         69.9157   61.1346   45.5576 Z9         2 LUT      0.196698
    148 C10        70.8503   61.9264   44.8702 Y1         2 LUT     -0.208611
    149 C11        71.5489   61.6542   43.6160 Y2         2 LUT      0.030784
    150 C12        72.6268   62.3853   43.1345 Y3         2 LUT     -0.220316
    151 C13        73.5608   62.3116   42.0248 Y4         2 LUT      0.215937
    152 C14        74.6489   63.1815   42.1549 Y5         2 LUT     -0.185793
    153 C15        75.8962   63.2386   41.5730 Y6         2 LUT     -0.057835
    154 C16        69.2069   59.5302   50.3419 Y7         2 LUT     -0.405615
    155 C17        69.3006   61.8210   51.4784 Y7         2 LUT     -0.405615
    156 C18        66.3569   63.0893   47.9407 Y9         2 LUT     -0.369639
    157 C19        69.3922   59.8065   44.9550 W1         2 LUT     -0.333362
    158 C20        73.3504   61.3170   40.8962 W2         2 LUT     -0.323439
    159 C21        86.7394   64.5174   35.6138 Z1         2 LUT      0.406104
    160 C22        87.5539   63.9803   34.3892 Z2         2 LUT     -0.404965
    161 C23        87.7423   64.9049   33.1566 Z3         2 LUT      0.391255
    162 O23        88.3529   64.1606   32.0943 S1         2 LUT     -0.528210
    163 C24        86.4894   65.7426   32.8950 W6         2 LUT     -0.258361
    164 C25        85.4568   65.8311   33.6735 Z5         2 LUT      0.133546
    165 C26        85.3411   65.0293   35.0217 W8         2 LUT     -0.147008
    166 C27        84.5494   65.7652   36.0520 Z7         2 LUT      0.023843
    167 C28        83.4139   65.3381   36.6996 Z8         2 LUT     -0.216987
    168 C29        82.8261   65.9036   37.9077 Z9         2 LUT      0.206524
    169 C30        81.8493   65.1820   38.5054 Y1         2 LUT     -0.215556
    170 C31        81.2276   65.4472   39.7615 Y2         2 LUT      0.025142
    171 C32        80.1866   64.7127   40.1457 Y3         2 LUT     -0.212209
    172 C33        79.2400   64.8080   41.2589 Y4         2 LUT      0.240937
    173 C34        78.1304   64.0019   41.1953 Y5         2 LUT     -0.218862
    174 C35        76.9587   63.9625   41.9782 Y6         2 LUT     -0.023547
    175 C36        87.5880   65.6248   36.2860 Y7         2 LUT     -0.393485
    176 C37        86.6794   63.3332   36.5775 Y7         2 LUT     -0.393485
    177 C38        84.2638   66.6393   33.2202 Y9         2 LUT     -0.387526
    178 C39        83.4378   67.2064   38.4926 W1         2 LUT     -0.322618
    179 C40        79.5461   65.6222   42.5256 W2         2 LUT     -0.358472
    180 H403       79.9967   64.9783   43.2462 R7         2 LUT      0.097720
    181 H402       80.1951   66.5974   42.3513 R7         2 LUT      0.097720
    182 H401       78.6947   66.0157   43.0016 R7         2 LUT      0.097720
    183 H393       83.5781   67.9951   37.7873 R4         2 LUT      0.082505
    184 H392       82.7809   67.6618   39.2006 R4         2 LUT      0.082505
    185 H391       84.3799   67.0171   39.0157 R4         2 LUT      0.082505
    186 H383       83.5201   66.6978   33.9938 R1         2 LUT      0.104030
    187 H382       84.4683   67.6996   33.1108 R1         2 LUT      0.104030
    188 H381       83.6902   66.2000   32.4136 R1         2 LUT      0.104030
    189 H373       86.3862   62.4140   36.0199 T4         2 LUT      0.089537
    190 H372       87.6737   63.1596   37.0548 T4         2 LUT      0.089537
    191 H371       86.0201   63.5489   37.3913 T4         2 LUT      0.089537
    192 H363       88.5705   65.2815   36.6749 T4         2 LUT      0.089537
    193 H362       87.7770   66.3273   35.4343 T4         2 LUT      0.089537
    194 H361       87.0955   66.2281   37.1411 T4         2 LUT      0.089537
    195 H222       88.5934   63.5705   34.5747 U2         2 LUT      0.127376
    196 H221       86.9031   63.2329   33.9839 U2         2 LUT      0.127376
    197 H203       72.7652   60.3790   41.1680 R7         2 LUT      0.087068
    198 H202       72.8699   61.7565   40.0586 R7         2 LUT      0.087068
    199 H201       74.3279   61.0099   40.3976 R7         2 LUT      0.087068
    200 H193       68.5535   59.3323   45.5116 R4         2 LUT      0.089716
    201 H192       69.1053   60.0196   43.9678 R4         2 LUT      0.089716
    202 H191       70.1721   59.0574   44.8886 R4         2 LUT      0.089716
    203 H183       65.5958   63.7956   48.1994 R1         2 LUT      0.094572
    204 H182       67.1015   63.5559   47.3441 R1         2 LUT      0.094572
    205 H181       65.8548   62.3439   47.3336 R1         2 LUT      0.094572
    206 H173       69.4441   61.4081   52.4738 T4         2 LUT      0.093752
    207 H172       70.2958   62.1154   51.1672 T4         2 LUT      0.093752
    208 H171       68.7928   62.8841   51.6141 T4         2 LUT      0.093752
    209 H163       68.5679   58.8159   49.7231 T4         2 LUT      0.093752
    210 H162       70.1465   59.8236   49.7683 T4         2 LUT      0.093752
    211 H161       69.4893   59.0166   51.3120 T4         2 LUT      0.093752
    212 HO3        65.9714   61.8464   53.4713 Q1         2 LUT      0.300121
    213 H8         69.5217   62.7464   47.0120 U7         2 LUT      0.080784
    214 H7         68.6887   60.0243   47.7482 U6         2 LUT      0.042190
    215 H42        64.9884   62.8162   50.0329 U5         2 LUT      0.145166
    216 H41        66.4264   63.6740   50.7440 U5         2 LUT      0.145166
    217 H35        76.8894   64.5710   42.8610 T3         2 LUT      0.077919
    218 H34        78.1191   63.2471   40.3857 T2         2 LUT      0.073626
    219 H32        79.8169   64.0240   39.4028 T1         2 LUT      0.092510
    220 H31        81.5901   66.2248   40.4128 U9         2 LUT      0.070048
    221 H30        81.5470   64.2600   38.0545 U8         2 LUT      0.085442
    222 H3         65.1964   61.0864   51.6132 U3         2 LUT     -0.031596
    223 H28        82.9943   64.3988   36.3912 U7         2 LUT      0.084728
    224 H27        84.8498   66.7587   36.4245 U6         2 LUT      0.087291
    225 H26        84.7988   64.1124   34.6879 Q6         2 LUT      0.075325
    226 H24        86.5351   66.2714   31.9160 Q5         2 LUT      0.094482
    227 H23        88.5602   65.5785   33.4696 U3         2 LUT     -0.024869
    228 H22        66.6451   59.8470   50.4446 U2         2 LUT      0.127376
    229 H21        67.3367   59.9280   52.1347 U2         2 LUT      0.127376
    230 H15        76.0613   62.6573   40.6567 T3         2 LUT      0.093200
    231 H14        74.4548   63.9569   42.8557 T2         2 LUT      0.068865
    232 H12        72.8354   63.2076   43.8352 T1         2 LUT      0.095507
    233 H11        71.1790   60.7741   43.1029 U9         2 LUT      0.068930
    234 H10        71.2570   62.9239   45.2685 U8         2 LUT      0.083911
    235 H1         87.6403   63.7926   31.5329 Q1         2 LUT      0.297311
@<TRIPOS>BOND
    1     6     1 1
    2     7     2 1
    3     8     3 1
    4     9     4 1
    5    11     4 1
    6    12     6 1
    7    13     9 1
    8    16     9 1
    9    25     5 1
   10    25    16 1
   11    26    10 1
   12    26    17 1
   13    27    18 1
   14    28    14 1
   15    28    19 1
   16    29    12 1
   17    30    13 1
   18    31    24 1
   19    32     1 1
   20    32    25 1
   21    33    21 1
   22    33    26 1
   23    34    22 1
   24    34    27 1
   25    35    23 1
   26    35    28 1
   27    36    12 1
   28    36    24 1
   29    37    13 1
   30    37    15 1
   31    38    31 1
   32    39    20 1
   33    39    32 1
   34    40     2 1
   35    40    33 1
   36    41     3 1
   37    41    34 1
   38    42     4 1
   39    42    35 1
   40    43    38 1
   41    44     5 1
   42    44    17 1
   43    44    39 1
   44    45    10 1
   45    45    18 1
   46    45    40 1
   47    46    19 1
   48    46    41 1
   49    47    14 1
   50    47    16 1
   51    47    42 1
   52    48    38 1
   53    49    48 1
   54    50    49 1
   55    51    50 1
   56    52    51 1
   57    53    51 1
   58    54    53 1
   59    55    54 1
   60    56    55 1
   61    57    56 1
   62    58    56 1
   63    59    58 1
   64    60    59 1
   65    61    60 1
   66    62    61 1
   67    63    61 1
   68    64    27 1
   69    64    46 1
   70    65     5 1
   71    65    10 1
   72    65    64 1
   73    65    14 1
   74    66    23 1
   75    67    23 1
   76    68    23 1
   77    69    22 1
   78    70    22 1
   79    71    22 1
   80    72    21 1
   81    73    21 1
   82    74    21 1
   83    75    20 1
   84    76    20 1
   85    77    20 1
   86    78    15 1
   87    79    15 1
   88    80    15 1
   89    81     8 1
   90    82     8 1
   91    83     8 1
   92    84     7 1
   93    85     7 1
   94    86     6 1
   95    87     6 1
   96    88     3 1
   97    89     3 1
   98    90     1 1
   99    91     1 1
  100    92    63 1
  101    93    63 1
  102    94    63 1
  103    95    62 1
  104    96    62 1
  105    97    62 1
  106    98    60 1
  107    99    60 1
  108   100    59 1
  109   101    59 1
  110   102    58 1
  111   103    58 1
  112   104    57 1
  113   105    57 1
  114   106    57 1
  115   107    55 1
  116   108    55 1
  117   109    54 1
  118   110    54 1
  119   111    53 1
  120   112    53 1
  121   113    19 1
  122   114    18 1
  123   115    17 1
  124   116     9 1
  125   117     2 1
  126   118    52 1
  127   119    52 1
  128   120    52 1
  129   121    51 1
  130   122    50 1
  131   123    50 1
  132   124    49 1
  133   125    49 1
  134   126    48 1
  135   127    48 1
  136   128    43 1
  137   129    43 1
  138   130    43 1
  139   131    39 1
  140   132    32 1
  141   133    31 1
  142   134    61 1
  143   135    56 1
  144   136    24 1
  145   137    24 1
  146   139   138 1
  147   140   139 1
  148   141   140 1
  149   142   140 1
  150   143   142 1
  151   144   138 1
  152   144   143 1
  153   145   144 1
  154   146   145 1
  155   147   146 1
  156   148   147 1
  157   149   148 1
  158   150   149 1
  159   151   150 1
  160   152   151 1
  161   153   152 1
  162   154   138 1
  163   155   138 1
  164   156   143 1
  165   157   147 1
  166   158   151 1
  167   160   159 1
  168   161   160 1
  169   162   161 1
  170   163   161 1
  171   164   163 1
  172   165   159 1
  173   165   164 1
  174   166   165 1
  175   167   166 1
  176   168   167 1
  177   169   168 1
  178   170   169 1
  179   171   170 1
  180   172   171 1
  181   173   172 1
  182   174   153 1
  183   174   173 1
  184   175   159 1
  185   176   159 1
  186   177   164 1
  187   178   168 1
  188   179   172 1
  189   180   179 1
  190   181   179 1
  191   182   179 1
  192   183   178 1
  193   184   178 1
  194   185   178 1
  195   186   177 1
  196   187   177 1
  197   188   177 1
  198   189   176 1
  199   190   176 1
  200   191   176 1
  201   192   175 1
  202   193   175 1
  203   194   175 1
  204   195   160 1
  205   196   160 1
  206   197   158 1
  207   198   158 1
  208   199   158 1
  209   200   157 1
  210   201   157 1
  211   202   157 1
  212   203   156 1
  213   204   156 1
  214   205   156 1
  215   206   155 1
  216   207   155 1
  217   208   155 1
  218   209   154 1
  219   210   154 1
  220   211   154 1
  221   212   141 1
  222   213   146 1
  223   214   145 1
  224   215   142 1
  225   216   142 1
  226   217   174 1
  227   218   173 1
  228   219   171 1
  229   220   170 1
  230   221   169 1
  231   222   140 1
  232   223   167 1
  233   224   166 1
  234   225   165 1
  235   226   163 1
  236   227   161 1
  237   228   139 1
  238   229   139 1
  239   230   153 1
  240   231   152 1
  241   232   150 1
  242   233   149 1
  243   234   148 1
  244   235   162 1
  245   65    153 1
  246   65    174 1
@<TRIPOS>SUBSTRUCTURE
      1 CLA               1 ****               0 ****  **** 
      2 LUT             138 ****               0 ****  **** 
