@<TRIPOS>MOLECULE
Cpptraj generated mol2 file.
  235   246     2     0     0
SMALL
USER_CHARGES


@<TRIPOS>ATOM
      1 CAA        76.8232   58.1978   33.2078 a2         1 CLA     -0.055900
      2 CAB        76.8659   61.3967   42.5517 c8         1 CLA     -0.148500
      3 CAC        69.9616   57.4256   41.7531 a2         1 CLA     -0.012600
      4 CAD        72.9308   55.1459   34.5418 ck         1 CLA      0.398800
      5 NA         75.7825   58.5823   36.6503 ns         1 CLA     -0.225500
      6 CBA        78.0576   58.0832   32.3222 a2         1 CLA     -0.135000
      7 CBB        78.0388   61.2948   43.2078 c0         1 CLA     -0.395200
      8 CBC        70.0839   56.0046   42.0845 a3         1 CLA     -0.037700
      9 CBD        74.2074   55.8180   34.2809 a1         1 CLA     -0.053900
     10 NB         75.6153   59.7911   39.3671 nm         1 CLA     -0.295700
     11 OBD        72.4691   54.2021   33.8858 o2         1 CLA     -0.494600
     12 CGA        78.5019   56.7117   31.8665 c4         1 CLA      0.827000
     13 CGD        75.3337   54.7860   34.1411 c4         1 CLA      0.655300
     14 ND         73.1300   57.2235   37.2976 nm         1 CLA     -0.291600
     15 CED        76.3604   52.8598   35.0615 a3         1 CLA      0.005400
     16 CHA        74.5301   56.8843   35.3092 cs         1 CLA     -0.123800
     17 CHB        77.5498   59.8627   37.7909 aa         1 CLA     -0.291900
     18 CHC        74.2603   59.9802   41.3554 aa         1 CLA     -0.090400
     19 CHD        71.2882   57.1094   38.8712 aa         1 CLA     -0.052000
     20 CMA        79.2218   57.8727   36.1021 a3         1 CLA     -0.230700
     21 CMB        78.8339   61.5979   39.9421 a3         1 CLA     -0.180800
     22 CMC        71.9670   59.2635   43.3605 a3         1 CLA     -0.134000
     23 CMD        70.2499   54.8521   36.7152 a3         1 CLA     -0.141100
     24 C1         79.5786   54.7268   32.8124 a2         1 CLA      0.023000
     25 C1A        75.6638   57.7327   35.4995 ac         1 CLA     -0.015100
     26 C1B        76.9056   60.1548   39.0140 cr         1 CLA      0.054700
     27 C1C        73.1614   59.2263   41.0025 cn         1 CLA     -0.005600
     28 C1D        71.8963   56.7283   37.6541 ap         1 CLA     -0.047300
     29 O1A        78.1283   56.1055   30.8810 o2         1 CLA     -0.610800
     30 O1D        76.1976   54.8308   33.3090 o2         1 CLA     -0.558200
     31 C2         79.8301   54.4088   34.2824 c8         1 CLA     -0.325100
     32 C2A        76.9989   57.6718   34.7310 a1         1 CLA      0.098600
     33 C2B        77.4948   60.9254   40.0800 cb         1 CLA      0.088500
     34 C2C        72.0477   58.9294   41.9160 cb         1 CLA      0.053700
     35 C2D        71.4655   55.7372   36.7272 cb         1 CLA      0.058900
     36 O2A        79.3759   56.2026   32.8017 o1         1 CLA     -0.437200
     37 O2D        75.2889   53.8206   35.1584 o1         1 CLA     -0.357600
     38 C3         80.6612   53.4012   34.6713 c5         1 CLA      0.031200
     39 C3A        77.9845   58.6423   35.5860 a1         1 CLA      0.166800
     40 C3B        76.6411   60.8602   41.1798 cb         1 CLA      0.035000
     41 C3C        71.1713   58.0408   41.2385 cb         1 CLA     -0.089900
     42 C3D        72.4973   55.7456   35.7620 cb         1 CLA     -0.035900
     43 C4         80.3197   52.0383   35.2086 a3         1 CLA     -0.053300
     44 C4A        77.0323   59.0250   36.7421 ac         1 CLA      0.001800
     45 C4B        75.4615   60.2180   40.6401 cn         1 CLA     -0.020900
     46 C4C        71.7758   57.8951   39.9265 cr         1 CLA     -0.044400
     47 C4D        73.3633   56.8162   36.1173 c6         1 CLA     -0.046000
     48 C5         82.1387   53.6503   34.5753 a2         1 CLA     -0.070400
     49 C6         82.6267   55.0563   34.9988 a2         1 CLA      0.043900
     50 C7         82.2842   55.3915   36.5036 a2         1 CLA     -0.150000
     51 C8         82.7944   56.7389   37.0945 a1         1 CLA      0.064200
     52 C9         84.0347   57.2638   36.4088 a3         1 CLA     -0.259300
     53 C10        82.8483   56.6257   38.6270 a2         1 CLA     -0.071900
     54 C11        81.5839   56.8421   39.3918 a2         1 CLA      0.014500
     55 C12        81.8633   57.0231   40.8797 a2         1 CLA     -0.112100
     56 C13        80.6177   57.2886   41.7033 a1         1 CLA      0.089200
     57 C14        79.5818   58.2799   41.1120 a3         1 CLA     -0.239100
     58 C15        80.8437   57.6075   43.2567 a2         1 CLA     -0.102200
     59 C16        81.6625   58.8945   43.5589 a2         1 CLA      0.023900
     60 C17        81.7384   59.1746   45.0582 a2         1 CLA     -0.105700
     61 C18        82.4295   60.5214   45.5356 a1         1 CLA      0.206800
     62 C19        83.9676   60.5052   45.3443 a3         1 CLA     -0.280100
     63 C20        81.6812   61.8072   45.1096 a3         1 CLA     -0.280100
     64 NC         72.9663   58.5493   39.8101 nx         1 CLA     -0.309200
     65 MG         74.2896   58.6815   38.2830 mg         1 CLA      0.895000
     66 HMD3       70.1080   54.3067   37.6741 dc         1 CLA      0.064300
     67 HMD2       69.3744   55.4734   36.5429 dc         1 CLA      0.064300
     68 HMD1       70.4202   54.1238   35.9444 dc         1 CLA      0.064300
     69 HMC3       70.9609   59.2924   43.7375 dc         1 CLA      0.052100
     70 HMC2       72.6843   58.6715   43.8820 dc         1 CLA      0.052100
     71 HMC1       72.2662   60.3494   43.2581 dc         1 CLA      0.052100
     72 HMB3       79.5245   60.8246   39.6049 dc         1 CLA      0.063600
     73 HMB2       78.6377   62.3641   39.1518 dc         1 CLA      0.063600
     74 HMB1       79.1702   62.0698   40.8492 dc         1 CLA      0.063600
     75 HMA3       79.7279   57.6090   35.2102 dc         1 CLA      0.058300
     76 HMA2       79.8888   58.5014   36.7066 dc         1 CLA      0.058300
     77 HMA1       78.9124   56.9904   36.6844 dc         1 CLA      0.058300
     78 HED3       76.1285   52.0323   35.7854 dc         1 CLA      0.079300
     79 HED2       76.3890   52.3576   34.1061 dc         1 CLA      0.079300
     80 HED1       77.2228   53.4897   35.2256 dc         1 CLA      0.079300
     81 HBC3       69.2503   55.6799   42.7080 dc         1 CLA      0.016300
     82 HBC2       70.0973   55.2780   41.2897 dc         1 CLA      0.016300
     83 HBC1       70.8534   55.8015   42.8494 dc         1 CLA      0.016300
     84 HBB2       78.1682   61.8815   44.1500 da         1 CLA      0.183000
     85 HBB1       78.9765   60.7707   42.8766 da         1 CLA      0.183000
     86 HBA2       77.9531   58.8719   31.5388 dc         1 CLA      0.029400
     87 HBA1       78.9440   58.5168   32.8385 dc         1 CLA      0.029400
     88 HAC2       69.5745   58.0384   42.5185 dc         1 CLA      0.029300
     89 HAC1       69.2201   57.3962   40.9042 dc         1 CLA      0.029300
     90 HAA2       75.9909   57.6655   32.7969 dc         1 CLA      0.028700
     91 HAA1       76.5903   59.2667   33.2593 dc         1 CLA      0.028700
     92 H203       81.7718   62.0175   43.9783 dc         1 CLA      0.065600
     93 H202       80.5969   61.7522   45.2574 dc         1 CLA      0.065600
     94 H201       82.1490   62.6674   45.5687 dc         1 CLA      0.065600
     95 H193       84.3196   59.5782   45.9184 dc         1 CLA      0.065600
     96 H192       84.2482   60.2587   44.3088 dc         1 CLA      0.065600
     97 H191       84.5116   61.4213   45.7073 dc         1 CLA      0.065600
     98 H172       80.7162   59.2989   45.2752 dc         1 CLA      0.027600
     99 H171       82.0034   58.2548   45.5075 dc         1 CLA      0.027600
    100 H162       82.6752   58.7836   43.1148 dc         1 CLA      0.002900
    101 H161       81.3137   59.7772   42.9679 dc         1 CLA      0.002900
    102 H152       79.8700   57.6301   43.7010 dc         1 CLA      0.029100
    103 H151       81.4471   56.8690   43.8152 dc         1 CLA      0.029100
    104 H143       80.1241   59.2201   40.9250 dc         1 CLA      0.063600
    105 H142       79.1510   57.8981   40.2256 dc         1 CLA      0.063600
    106 H141       78.7950   58.5071   41.8548 dc         1 CLA      0.063600
    107 H122       82.4592   56.2345   41.2562 dc         1 CLA      0.032500
    108 H121       82.3219   58.0378   41.0135 dc         1 CLA      0.032500
    109 H112       81.0990   57.6859   38.9060 dc         1 CLA      0.006600
    110 H111       80.9276   55.9546   39.3346 dc         1 CLA      0.006600
    111 H102       83.1516   55.6354   38.9117 dc         1 CLA      0.024100
    112 H101       83.5741   57.3404   38.9564 dc         1 CLA      0.024100
    113 HHD        70.3776   56.5160   39.1072 da         1 CLA      0.174300
    114 HHC        74.3868   60.3333   42.3940 da         1 CLA      0.136800
    115 HHB        78.5458   60.3572   37.5735 da         1 CLA      0.138300
    116 HBD        74.1760   56.1681   33.2612 dc         1 CLA      0.107700
    117 HAB        76.0743   61.8829   43.0728 da         1 CLA      0.155200
    118 H93        84.8441   56.5499   36.5447 dc         1 CLA      0.069500
    119 H92        83.8120   57.5577   35.3534 dc         1 CLA      0.069500
    120 H91        84.3152   58.1423   36.9578 dc         1 CLA      0.069500
    121 H8         82.1222   57.4891   36.8331 dc         1 CLA      0.029300
    122 H72        81.1964   55.3132   36.6475 dc         1 CLA      0.044400
    123 H71        82.8878   54.6683   37.0954 dc         1 CLA      0.044400
    124 H62        83.7202   55.0201   34.7485 dc         1 CLA      0.015600
    125 H61        82.1332   55.7159   34.3277 dc         1 CLA      0.015600
    126 H52        82.7230   52.9399   35.2021 dc         1 CLA      0.033200
    127 H51        82.4141   53.3564   33.5822 dc         1 CLA      0.033200
    128 H43        80.6710   51.2621   34.5485 dc         1 CLA      0.037000
    129 H42        80.8375   51.9167   36.1297 dc         1 CLA      0.037000
    130 H41        79.2437   51.9990   35.4856 dc         1 CLA      0.037000
    131 H3A        78.4875   59.4244   35.0700 dc         1 CLA      0.041100
    132 H2A        77.3762   56.6854   34.7720 dc         1 CLA      0.083100
    133 H2         79.6214   55.1303   35.0346 da         1 CLA      0.180900
    134 H18        82.3264   60.4877   46.6377 dc         1 CLA     -0.003900
    135 H13        80.0833   56.3609   41.7770 dc         1 CLA      0.019700
    136 H12        78.7076   54.1620   32.4430 dc         1 CLA      0.120400
    137 H11        80.4231   54.2799   32.2406 dc         1 CLA      0.120400
    138 C1         66.8614   61.4834   49.8444 Z1         2 LUT      0.509236
    139 C2         66.8826   62.6589   50.8453 Z2         2 LUT     -0.434695
    140 C3         65.6966   63.5961   50.9489 Z3         2 LUT      0.437453
    141 O3         66.0450   64.9655   51.2199 S1         2 LUT     -0.547129
    142 C4         64.9146   63.5998   49.6385 Z4         2 LUT     -0.468603
    143 C5         65.6266   63.1264   48.4191 Z5         2 LUT      0.279246
    144 C6         66.4305   62.0482   48.4285 Z6         2 LUT     -0.305473
    145 C7         67.2103   61.5942   47.2680 Z7         2 LUT      0.069402
    146 C8         68.0037   62.3521   46.4283 Z8         2 LUT     -0.191631
    147 C9         68.5878   61.7858   45.1700 Z9         2 LUT      0.196698
    148 C10        69.5417   62.5657   44.5617 Y1         2 LUT     -0.208611
    149 C11        70.1159   62.3029   43.2733 Y2         2 LUT      0.030784
    150 C12        71.2267   63.0634   42.9163 Y3         2 LUT     -0.220316
    151 C13        72.1636   62.9758   41.7254 Y4         2 LUT      0.215937
    152 C14        73.3725   63.5914   41.8373 Y5         2 LUT     -0.185793
    153 C15        74.4793   63.8321   40.9086 Y6         2 LUT     -0.057835
    154 C16        65.8185   60.5151   50.3704 Y7         2 LUT     -0.405615
    155 C17        68.1211   60.5802   49.7232 Y7         2 LUT     -0.405615
    156 C18        65.4522   64.0614   47.2122 Y9         2 LUT     -0.369639
    157 C19        68.0834   60.4545   44.7548 W1         2 LUT     -0.333362
    158 C20        71.6148   62.3350   40.5037 W2         2 LUT     -0.323439
    159 C21        85.9785   63.9961   34.4723 Z1         2 LUT      0.406104
    160 C22        86.6210   63.6484   33.0689 Z2         2 LUT     -0.404965
    161 C23        86.7943   64.8343   32.0965 Z3         2 LUT      0.391255
    162 O23        87.4013   64.2876   30.9575 S1         2 LUT     -0.528210
    163 C24        85.6020   65.7819   32.1686 W6         2 LUT     -0.258361
    164 C25        84.5986   65.7218   33.0657 Z5         2 LUT      0.133546
    165 C26        84.5879   64.7474   34.3279 W8         2 LUT     -0.147008
    166 C27        83.9811   65.3152   35.6606 Z7         2 LUT      0.023843
    167 C28        82.6460   65.3789   35.9063 Z8         2 LUT     -0.216987
    168 C29        82.0981   65.9180   37.1188 Z9         2 LUT      0.206524
    169 C30        80.8081   65.5058   37.4169 Y1         2 LUT     -0.215556
    170 C31        79.9840   65.7458   38.5778 Y2         2 LUT      0.025142
    171 C32        78.8152   65.0320   38.8484 Y3         2 LUT     -0.212209
    172 C33        77.9856   65.0693   40.0640 Y4         2 LUT      0.240937
    173 C34        76.7234   64.4189   40.1323 Y5         2 LUT     -0.218862
    174 C35        75.7059   64.3868   41.1264 Y6         2 LUT     -0.023547
    175 C36        87.1530   64.7527   35.1336 Y7         2 LUT     -0.393485
    176 C37        85.9845   62.6309   35.1356 Y7         2 LUT     -0.393485
    177 C38        83.3928   66.6714   32.8653 Y9         2 LUT     -0.387526
    178 C39        83.0122   66.9021   37.9067 W1         2 LUT     -0.322618
    179 C40        78.3415   66.1630   41.0975 W2         2 LUT     -0.358472
    180 H403       79.4492   66.1077   41.1769 R7         2 LUT      0.097720
    181 H402       78.0395   67.1728   40.8537 R7         2 LUT      0.097720
    182 H401       77.8768   65.8521   42.0381 R7         2 LUT      0.097720
    183 H393       82.4325   67.5289   38.5550 R4         2 LUT      0.082505
    184 H392       83.7844   66.4618   38.4913 R4         2 LUT      0.082505
    185 H391       83.5895   67.5081   37.2238 R4         2 LUT      0.082505
    186 H383       83.6483   67.7461   33.1058 R1         2 LUT      0.104030
    187 H382       82.9806   66.6638   31.7979 R1         2 LUT      0.104030
    188 H381       82.5783   66.4835   33.5832 R1         2 LUT      0.104030
    189 H373       85.2432   61.9448   34.7140 T4         2 LUT      0.089537
    190 H372       86.9232   62.0439   35.1821 T4         2 LUT      0.089537
    191 H371       85.6761   62.6166   36.1661 T4         2 LUT      0.089537
    192 H363       88.2131   64.3975   34.9551 T4         2 LUT      0.089537
    193 H362       87.1647   65.8156   34.8881 T4         2 LUT      0.089537
    194 H361       87.0958   64.6626   36.2408 T4         2 LUT      0.089537
    195 H222       87.5582   63.2239   33.2286 U2         2 LUT      0.127376
    196 H221       85.8241   62.9970   32.5534 U2         2 LUT      0.127376
    197 H203       72.2938   62.2933   39.6375 R7         2 LUT      0.087068
    198 H202       71.4067   61.3532   40.7923 R7         2 LUT      0.087068
    199 H201       70.5863   62.7111   40.2898 R7         2 LUT      0.087068
    200 H193       68.6193   59.6377   45.1182 R4         2 LUT      0.089716
    201 H192       67.0708   60.3082   45.0093 R4         2 LUT      0.089716
    202 H191       68.2257   60.3406   43.6822 R4         2 LUT      0.089716
    203 H183       65.4938   63.5007   46.3148 R1         2 LUT      0.094572
    204 H182       64.4998   64.5331   47.1856 R1         2 LUT      0.094572
    205 H181       66.2109   64.8426   47.2326 R1         2 LUT      0.094572
    206 H173       68.8365   61.2127   49.3161 T4         2 LUT      0.093752
    207 H172       68.5056   60.2205   50.6463 T4         2 LUT      0.093752
    208 H171       68.0482   59.7020   49.0541 T4         2 LUT      0.093752
    209 H163       64.8492   61.0016   50.5481 T4         2 LUT      0.093752
    210 H162       65.5195   59.7573   49.5825 T4         2 LUT      0.093752
    211 H161       66.0576   60.0442   51.3308 T4         2 LUT      0.093752
    212 HO3        65.2772   65.4447   51.5685 Q1         2 LUT      0.300121
    213 H8         68.1365   63.3399   46.7406 U7         2 LUT      0.080784
    214 H7         67.2556   60.5113   47.0495 U6         2 LUT      0.042190
    215 H42        64.0724   62.8865   49.6010 U5         2 LUT      0.145166
    216 H41        64.5023   64.5861   49.4380 U5         2 LUT      0.145166
    217 H35        75.8541   64.8028   42.1497 T3         2 LUT      0.077919
    218 H34        76.4318   63.9391   39.1595 T2         2 LUT      0.073626
    219 H32        78.4477   64.4298   37.9993 T1         2 LUT      0.092510
    220 H31        80.3109   66.3892   39.3630 U9         2 LUT      0.070048
    221 H30        80.3256   64.8907   36.7340 U8         2 LUT      0.085442
    222 H3         65.0434   63.1117   51.7748 U3         2 LUT     -0.031596
    223 H28        81.9897   64.9906   35.1384 U7         2 LUT      0.084728
    224 H27        84.7852   65.5876   36.3085 U6         2 LUT      0.087291
    225 H26        83.8379   64.0910   33.9043 Q6         2 LUT      0.075325
    226 H24        85.5507   66.5590   31.3648 Q5         2 LUT      0.094482
    227 H23        87.5979   65.4390   32.5512 U3         2 LUT     -0.024869
    228 H22        66.9846   62.2181   51.8805 U2         2 LUT      0.127376
    229 H21        67.7252   63.2951   50.6940 U2         2 LUT      0.127376
    230 H15        74.4108   63.3419   39.8871 T3         2 LUT      0.093200
    231 H14        73.7172   63.9968   42.7819 T2         2 LUT      0.068865
    232 H12        71.5616   63.7334   43.7195 T1         2 LUT      0.095507
    233 H11        69.8403   61.4572   42.6547 U9         2 LUT      0.068930
    234 H10        69.7979   63.4952   45.0033 U8         2 LUT      0.083911
    235 H1         86.8011   64.2818   30.2231 Q1         2 LUT      0.297311
@<TRIPOS>BOND
    1     6     1 1
    2     7     2 1
    3     8     3 1
    4     9     4 1
    5    11     4 1
    6    12     6 1
    7    13     9 1
    8    16     9 1
    9    25     5 1
   10    25    16 1
   11    26    10 1
   12    26    17 1
   13    27    18 1
   14    28    14 1
   15    28    19 1
   16    29    12 1
   17    30    13 1
   18    31    24 1
   19    32     1 1
   20    32    25 1
   21    33    21 1
   22    33    26 1
   23    34    22 1
   24    34    27 1
   25    35    23 1
   26    35    28 1
   27    36    12 1
   28    36    24 1
   29    37    13 1
   30    37    15 1
   31    38    31 1
   32    39    20 1
   33    39    32 1
   34    40     2 1
   35    40    33 1
   36    41     3 1
   37    41    34 1
   38    42     4 1
   39    42    35 1
   40    43    38 1
   41    44     5 1
   42    44    17 1
   43    44    39 1
   44    45    10 1
   45    45    18 1
   46    45    40 1
   47    46    19 1
   48    46    41 1
   49    47    14 1
   50    47    16 1
   51    47    42 1
   52    48    38 1
   53    49    48 1
   54    50    49 1
   55    51    50 1
   56    52    51 1
   57    53    51 1
   58    54    53 1
   59    55    54 1
   60    56    55 1
   61    57    56 1
   62    58    56 1
   63    59    58 1
   64    60    59 1
   65    61    60 1
   66    62    61 1
   67    63    61 1
   68    64    27 1
   69    64    46 1
   70    65     5 1
   71    65    10 1
   72    65    64 1
   73    65    14 1
   74    66    23 1
   75    67    23 1
   76    68    23 1
   77    69    22 1
   78    70    22 1
   79    71    22 1
   80    72    21 1
   81    73    21 1
   82    74    21 1
   83    75    20 1
   84    76    20 1
   85    77    20 1
   86    78    15 1
   87    79    15 1
   88    80    15 1
   89    81     8 1
   90    82     8 1
   91    83     8 1
   92    84     7 1
   93    85     7 1
   94    86     6 1
   95    87     6 1
   96    88     3 1
   97    89     3 1
   98    90     1 1
   99    91     1 1
  100    92    63 1
  101    93    63 1
  102    94    63 1
  103    95    62 1
  104    96    62 1
  105    97    62 1
  106    98    60 1
  107    99    60 1
  108   100    59 1
  109   101    59 1
  110   102    58 1
  111   103    58 1
  112   104    57 1
  113   105    57 1
  114   106    57 1
  115   107    55 1
  116   108    55 1
  117   109    54 1
  118   110    54 1
  119   111    53 1
  120   112    53 1
  121   113    19 1
  122   114    18 1
  123   115    17 1
  124   116     9 1
  125   117     2 1
  126   118    52 1
  127   119    52 1
  128   120    52 1
  129   121    51 1
  130   122    50 1
  131   123    50 1
  132   124    49 1
  133   125    49 1
  134   126    48 1
  135   127    48 1
  136   128    43 1
  137   129    43 1
  138   130    43 1
  139   131    39 1
  140   132    32 1
  141   133    31 1
  142   134    61 1
  143   135    56 1
  144   136    24 1
  145   137    24 1
  146   139   138 1
  147   140   139 1
  148   141   140 1
  149   142   140 1
  150   143   142 1
  151   144   138 1
  152   144   143 1
  153   145   144 1
  154   146   145 1
  155   147   146 1
  156   148   147 1
  157   149   148 1
  158   150   149 1
  159   151   150 1
  160   152   151 1
  161   153   152 1
  162   154   138 1
  163   155   138 1
  164   156   143 1
  165   157   147 1
  166   158   151 1
  167   160   159 1
  168   161   160 1
  169   162   161 1
  170   163   161 1
  171   164   163 1
  172   165   159 1
  173   165   164 1
  174   166   165 1
  175   167   166 1
  176   168   167 1
  177   169   168 1
  178   170   169 1
  179   171   170 1
  180   172   171 1
  181   173   172 1
  182   174   153 1
  183   174   173 1
  184   175   159 1
  185   176   159 1
  186   177   164 1
  187   178   168 1
  188   179   172 1
  189   180   179 1
  190   181   179 1
  191   182   179 1
  192   183   178 1
  193   184   178 1
  194   185   178 1
  195   186   177 1
  196   187   177 1
  197   188   177 1
  198   189   176 1
  199   190   176 1
  200   191   176 1
  201   192   175 1
  202   193   175 1
  203   194   175 1
  204   195   160 1
  205   196   160 1
  206   197   158 1
  207   198   158 1
  208   199   158 1
  209   200   157 1
  210   201   157 1
  211   202   157 1
  212   203   156 1
  213   204   156 1
  214   205   156 1
  215   206   155 1
  216   207   155 1
  217   208   155 1
  218   209   154 1
  219   210   154 1
  220   211   154 1
  221   212   141 1
  222   213   146 1
  223   214   145 1
  224   215   142 1
  225   216   142 1
  226   217   174 1
  227   218   173 1
  228   219   171 1
  229   220   170 1
  230   221   169 1
  231   222   140 1
  232   223   167 1
  233   224   166 1
  234   225   165 1
  235   226   163 1
  236   227   161 1
  237   228   139 1
  238   229   139 1
  239   230   153 1
  240   231   152 1
  241   232   150 1
  242   233   149 1
  243   234   148 1
  244   235   162 1
  245   65    153 1
  246   65    174 1
@<TRIPOS>SUBSTRUCTURE
      1 CLA               1 ****               0 ****  **** 
      2 LUT             138 ****               0 ****  **** 
