@<TRIPOS>MOLECULE
Cpptraj generated mol2 file.
  235   246     2     0     0
SMALL
USER_CHARGES


@<TRIPOS>ATOM
      1 CAA        79.1022   57.5749   35.1237 a2         1 CLA     -0.055900
      2 CAB        78.8380   61.9145   43.9850 c8         1 CLA     -0.148500
      3 CAC        72.0202   57.7060   43.6043 a2         1 CLA     -0.012600
      4 CAD        75.0162   54.9745   36.4505 ck         1 CLA      0.398800
      5 NA         78.0052   58.3562   38.4892 ns         1 CLA     -0.225500
      6 CBA        80.5328   57.5019   34.4189 a2         1 CLA     -0.135000
      7 CBB        79.7948   61.5712   44.9568 c0         1 CLA     -0.395200
      8 CBC        72.0340   56.1840   43.7089 a3         1 CLA     -0.037700
      9 CBD        76.4353   55.5163   36.1226 a1         1 CLA     -0.053900
     10 NB         77.7118   59.9663   40.9836 nm         1 CLA     -0.295700
     11 OBD        74.5154   54.0047   35.8762 o2         1 CLA     -0.494600
     12 CGA        81.2077   56.1369   34.0874 c4         1 CLA      0.827000
     13 CGD        77.4979   54.3864   35.8945 c4         1 CLA      0.655300
     14 ND         75.3509   57.2006   39.2175 nm         1 CLA     -0.291600
     15 CED        78.1346   52.2102   36.6255 a3         1 CLA      0.005400
     16 CHA        76.7845   56.5853   37.1872 cs         1 CLA     -0.123800
     17 CHB        79.6891   59.7727   39.4771 aa         1 CLA     -0.291900
     18 CHC        76.3578   60.3521   42.9962 aa         1 CLA     -0.090400
     19 CHD        73.4207   57.1144   40.7275 aa         1 CLA     -0.052000
     20 CMA        81.3748   57.5939   38.3645 a3         1 CLA     -0.230700
     21 CMB        81.1301   61.5022   41.7057 a3         1 CLA     -0.180800
     22 CMC        74.3136   59.4755   45.1451 a3         1 CLA     -0.134000
     23 CMD        72.3178   55.0807   38.5109 a3         1 CLA     -0.141100
     24 C1         82.5194   54.3577   35.0140 a2         1 CLA      0.023000
     25 C1A        77.9257   57.4477   37.4372 ac         1 CLA     -0.015100
     26 C1B        78.9802   60.3090   40.5968 cr         1 CLA      0.054700
     27 C1C        75.2804   59.5218   42.7073 cn         1 CLA     -0.005600
     28 C1D        74.0378   56.7056   39.5078 ap         1 CLA     -0.047300
     29 O1A        81.3009   55.6464   32.9677 o2         1 CLA     -0.610800
     30 O1D        78.4202   54.3568   35.0425 o2         1 CLA     -0.558200
     31 C2         82.4368   53.5122   36.2832 c8         1 CLA     -0.325100
     32 C2A        79.2813   57.2646   36.6884 a1         1 CLA      0.098600
     33 C2B        79.6304   61.0799   41.6691 cb         1 CLA      0.088500
     34 C2C        74.2751   59.1435   43.7014 cb         1 CLA      0.053700
     35 C2D        73.5296   55.8404   38.5228 cb         1 CLA      0.058900
     36 O2A        81.7125   55.5511   35.2802 o1         1 CLA     -0.437200
     37 O2D        77.2424   53.3413   36.7412 o1         1 CLA     -0.357600
     38 C3         83.4794   53.1988   37.0598 c5         1 CLA      0.031200
     39 C3A        80.2250   58.2399   37.5026 a1         1 CLA      0.166800
     40 C3B        78.6847   61.2135   42.6846 cb         1 CLA      0.035000
     41 C3C        73.3448   58.2836   43.0082 cb         1 CLA     -0.089900
     42 C3D        74.6035   55.7491   37.6050 cb         1 CLA     -0.035900
     43 C4         84.2975   51.9062   36.7878 a3         1 CLA     -0.053300
     44 C4A        79.2552   58.8284   38.5311 ac         1 CLA      0.001800
     45 C4B        77.5153   60.5865   42.2076 cn         1 CLA     -0.020900
     46 C4C        73.9527   58.0078   41.6962 cr         1 CLA     -0.044400
     47 C4D        75.6876   56.5567   38.0670 c6         1 CLA     -0.046000
     48 C5         83.8021   54.0131   38.3173 a2         1 CLA     -0.070400
     49 C6         84.5708   55.3421   38.0286 a2         1 CLA      0.043900
     50 C7         84.9538   56.0485   39.4063 a2         1 CLA     -0.150000
     51 C8         85.3147   57.5712   39.4147 a1         1 CLA      0.064200
     52 C9         86.6496   57.8657   38.7631 a3         1 CLA     -0.259300
     53 C10        85.2718   58.2050   40.8487 a2         1 CLA     -0.071900
     54 C11        83.9163   58.2744   41.5589 a2         1 CLA      0.014500
     55 C12        84.0081   59.1433   42.7869 a2         1 CLA     -0.112100
     56 C13        84.8966   58.7869   44.0815 a1         1 CLA      0.089200
     57 C14        84.5789   57.4322   44.8806 a3         1 CLA     -0.239100
     58 C15        85.0099   59.9709   45.0974 a2         1 CLA     -0.102200
     59 C16        83.7199   60.4320   45.7590 a2         1 CLA      0.023900
     60 C17        83.9229   61.2534   47.0208 a2         1 CLA     -0.105700
     61 C18        82.6449   62.0394   47.5903 a1         1 CLA      0.206800
     62 C19        81.6143   60.9705   48.1994 a3         1 CLA     -0.280100
     63 C20        83.0633   62.9836   48.7170 a3         1 CLA     -0.280100
     64 NC         75.0828   58.7308   41.5910 nx         1 CLA     -0.309200
     65 MG         76.4544   58.6953   40.0400 mg         1 CLA      0.895000
     66 HMD3       72.3602   54.2495   37.8369 dc         1 CLA      0.064300
     67 HMD2       71.8658   54.7890   39.4893 dc         1 CLA      0.064300
     68 HMD1       71.5370   55.7517   38.1282 dc         1 CLA      0.064300
     69 HMC3       74.5112   58.5507   45.6402 dc         1 CLA      0.052100
     70 HMC2       75.1091   60.1766   45.3813 dc         1 CLA      0.052100
     71 HMC1       73.3043   59.9198   45.4013 dc         1 CLA      0.052100
     72 HMB3       81.5983   61.5627   40.6862 dc         1 CLA      0.063600
     73 HMB2       81.1322   62.3591   42.3298 dc         1 CLA      0.063600
     74 HMB1       81.5069   60.8576   42.4562 dc         1 CLA      0.063600
     75 HMA3       80.9585   57.0177   39.2147 dc         1 CLA      0.058300
     76 HMA2       82.0165   56.9613   37.7410 dc         1 CLA      0.058300
     77 HMA1       81.9876   58.3758   38.7208 dc         1 CLA      0.058300
     78 HED3       79.0545   52.5179   37.1520 dc         1 CLA      0.079300
     79 HED2       77.6369   51.2715   37.0672 dc         1 CLA      0.079300
     80 HED1       78.3076   51.9860   35.5802 dc         1 CLA      0.079300
     81 HBC3       71.0918   55.9026   44.1579 dc         1 CLA      0.016300
     82 HBC2       72.1214   55.7252   42.7419 dc         1 CLA      0.016300
     83 HBC1       72.8909   55.8504   44.2908 dc         1 CLA      0.016300
     84 HBB2       79.9267   62.1899   45.8703 da         1 CLA      0.183000
     85 HBB1       80.5634   60.8154   44.8176 da         1 CLA      0.183000
     86 HBA2       80.5151   58.0005   33.4593 dc         1 CLA      0.029400
     87 HBA1       81.2100   58.0097   34.9971 dc         1 CLA      0.029400
     88 HAC2       71.9343   58.1090   44.5762 dc         1 CLA      0.029300
     89 HAC1       71.2409   58.0181   42.9589 dc         1 CLA      0.029300
     90 HAA2       78.5586   56.7602   34.6805 dc         1 CLA      0.028700
     91 HAA1       78.5653   58.5415   34.9797 dc         1 CLA      0.028700
     92 H203       83.4168   62.3192   49.5493 dc         1 CLA      0.065600
     93 H202       83.8500   63.6784   48.4923 dc         1 CLA      0.065600
     94 H201       82.2191   63.5151   49.0369 dc         1 CLA      0.065600
     95 H193       81.4255   60.2312   47.4322 dc         1 CLA      0.065600
     96 H192       81.9550   60.5059   49.1037 dc         1 CLA      0.065600
     97 H191       80.6999   61.5162   48.4229 dc         1 CLA      0.065600
     98 H172       84.3342   60.8894   47.9384 dc         1 CLA      0.027600
     99 H171       84.6959   62.0655   46.7742 dc         1 CLA      0.027600
    100 H162       83.1888   60.8869   44.9582 dc         1 CLA      0.002900
    101 H161       83.1055   59.5553   46.1263 dc         1 CLA      0.002900
    102 H152       85.6185   59.6421   45.9243 dc         1 CLA      0.029100
    103 H151       85.4048   60.8900   44.6595 dc         1 CLA      0.029100
    104 H143       85.3328   57.1792   45.5978 dc         1 CLA      0.063600
    105 H142       83.5471   57.4096   45.2714 dc         1 CLA      0.063600
    106 H141       84.5661   56.7415   44.0536 dc         1 CLA      0.063600
    107 H122       84.3047   60.1575   42.4359 dc         1 CLA      0.032500
    108 H121       83.0003   59.2960   43.1669 dc         1 CLA      0.032500
    109 H112       83.1157   58.6761   40.9734 dc         1 CLA      0.006600
    110 H111       83.5273   57.2764   41.7116 dc         1 CLA      0.006600
    111 H102       85.8745   57.6959   41.6591 dc         1 CLA      0.024100
    112 H101       85.6382   59.2092   40.6809 dc         1 CLA      0.024100
    113 HHD        72.5013   56.7171   40.9558 da         1 CLA      0.174300
    114 HHC        76.2557   60.9207   43.9169 da         1 CLA      0.136800
    115 HHB        80.7944   60.0887   39.4227 da         1 CLA      0.138300
    116 HBD        76.3365   56.0783   35.2124 dc         1 CLA      0.107700
    117 HAB        78.0697   62.6322   44.2573 da         1 CLA      0.155200
    118 H93        86.7717   57.4808   37.7754 dc         1 CLA      0.069500
    119 H92        86.7463   58.9150   38.7318 dc         1 CLA      0.069500
    120 H91        87.3817   57.4654   39.4022 dc         1 CLA      0.069500
    121 H8         84.6160   58.0370   38.6908 dc         1 CLA      0.029300
    122 H72        84.0004   56.0325   39.9763 dc         1 CLA      0.044400
    123 H71        85.6446   55.4496   39.9631 dc         1 CLA      0.044400
    124 H62        85.4741   55.2524   37.4102 dc         1 CLA      0.015600
    125 H61        83.9446   56.0207   37.4056 dc         1 CLA      0.015600
    126 H52        82.8089   54.2225   38.7305 dc         1 CLA      0.033200
    127 H51        84.4596   53.4017   38.9273 dc         1 CLA      0.033200
    128 H43        84.6502   51.4063   37.6472 dc         1 CLA      0.037000
    129 H42        83.6177   51.2903   36.2119 dc         1 CLA      0.037000
    130 H41        85.1618   52.0837   36.2140 dc         1 CLA      0.037000
    131 H3A        80.6627   59.0300   36.9686 dc         1 CLA      0.041100
    132 H2A        79.7351   56.3186   36.9393 dc         1 CLA      0.083100
    133 H2         81.4877   53.0461   36.3895 da         1 CLA      0.180900
    134 H18        82.1872   62.6836   46.8563 dc         1 CLA     -0.003900
    135 H13        85.8796   58.6701   43.6962 dc         1 CLA      0.019700
    136 H12        82.0151   53.7024   34.2096 dc         1 CLA      0.120400
    137 H11        83.5344   54.6579   34.7928 dc         1 CLA      0.120400
    138 C1         68.4926   61.2371   50.2213 Z1         2 LUT      0.509236
    139 C2         67.1663   61.0810   50.9900 Z2         2 LUT     -0.434695
    140 C3         66.1426   62.2718   51.0316 Z3         2 LUT      0.437453
    141 O3         66.2815   63.0545   52.3193 S1         2 LUT     -0.547129
    142 C4         66.4758   63.3259   50.0452 Z4         2 LUT     -0.468603
    143 C5         67.2019   62.8658   48.8056 Z5         2 LUT      0.279246
    144 C6         68.1774   61.9185   48.8671 Z6         2 LUT     -0.305473
    145 C7         68.7689   61.2795   47.5793 Z7         2 LUT      0.069402
    146 C8         69.5057   62.0281   46.7372 Z8         2 LUT     -0.191631
    147 C9         70.1264   61.4639   45.6267 Z9         2 LUT      0.196698
    148 C10        71.1920   62.2052   44.9954 Y1         2 LUT     -0.208611
    149 C11        71.9092   61.9095   43.7247 Y2         2 LUT      0.030784
    150 C12        72.9824   62.6262   43.1831 Y3         2 LUT     -0.220316
    151 C13        73.8333   62.4776   42.0180 Y4         2 LUT      0.215937
    152 C14        74.8826   63.3989   41.9524 Y5         2 LUT     -0.185793
    153 C15        76.0529   63.3301   41.1764 Y6         2 LUT     -0.057835
    154 C16        69.1577   59.8319   50.1378 Y7         2 LUT     -0.405615
    155 C17        69.3857   62.1278   51.1180 Y7         2 LUT     -0.405615
    156 C18        66.6263   63.4538   47.5858 Y9         2 LUT     -0.369639
    157 C19        69.5035   60.3085   44.9533 W1         2 LUT     -0.333362
    158 C20        73.4989   61.7146   40.7693 W2         2 LUT     -0.323439
    159 C21        87.6096   64.7068   35.2320 Z1         2 LUT      0.406104
    160 C22        88.4319   64.1215   34.0381 Z2         2 LUT     -0.404965
    161 C23        88.4305   65.0816   32.8999 Z3         2 LUT      0.391255
    162 O23        89.1926   64.4564   31.7486 S1         2 LUT     -0.528210
    163 C24        87.1274   65.6360   32.5110 W6         2 LUT     -0.258361
    164 C25        86.0953   65.6986   33.3599 Z5         2 LUT      0.133546
    165 C26        86.1302   64.9670   34.7644 W8         2 LUT     -0.147008
    166 C27        85.3133   65.6687   35.8068 Z7         2 LUT      0.023843
    167 C28        84.1610   65.1792   36.3687 Z8         2 LUT     -0.216987
    168 C29        83.4957   65.6672   37.5650 Z9         2 LUT      0.206524
    169 C30        82.3805   65.0185   37.9888 Y1         2 LUT     -0.215556
    170 C31        81.6070   65.2385   39.1783 Y2         2 LUT      0.025142
    171 C32        80.4180   64.6395   39.4928 Y3         2 LUT     -0.212209
    172 C33        79.4903   64.7719   40.5988 Y4         2 LUT      0.240937
    173 C34        78.3577   64.0735   40.4979 Y5         2 LUT     -0.218862
    174 C35        77.2059   64.1431   41.4573 Y6         2 LUT     -0.023547
    175 C36        88.4200   65.7688   35.9656 Y7         2 LUT     -0.393485
    176 C37        87.5721   63.5834   36.3823 Y7         2 LUT     -0.393485
    177 C38        84.8356   66.4253   32.9322 Y9         2 LUT     -0.387526
    178 C39        84.1332   66.8996   38.1997 W1         2 LUT     -0.322618
    179 C40        79.7610   65.6642   41.7526 W2         2 LUT     -0.358472
    180 H403       80.5825   66.4262   41.6078 R7         2 LUT      0.097720
    181 H402       78.9870   66.2608   42.0719 R7         2 LUT      0.097720
    182 H401       79.9442   65.0594   42.5833 R7         2 LUT      0.097720
    183 H393       83.9426   67.7483   37.5886 R4         2 LUT      0.082505
    184 H392       83.7373   67.1159   39.1767 R4         2 LUT      0.082505
    185 H391       85.2384   66.9023   38.3265 R4         2 LUT      0.082505
    186 H383       84.7605   66.9885   31.9994 R1         2 LUT      0.104030
    187 H382       83.9226   65.8679   32.9123 R1         2 LUT      0.104030
    188 H381       84.6657   67.2799   33.6760 R1         2 LUT      0.104030
    189 H373       88.5251   63.3198   36.8032 T4         2 LUT      0.089537
    190 H372       86.9667   63.8731   37.2433 T4         2 LUT      0.089537
    191 H371       87.1267   62.6593   36.0974 T4         2 LUT      0.089537
    192 H363       89.3514   65.3893   36.3768 T4         2 LUT      0.089537
    193 H362       88.5511   66.6216   35.3938 T4         2 LUT      0.089537
    194 H361       87.8346   66.2291   36.8229 T4         2 LUT      0.089537
    195 H222       89.4407   63.7876   34.2673 U2         2 LUT      0.127376
    196 H221       87.9852   63.2701   33.6055 U2         2 LUT      0.127376
    197 H203       73.4212   62.4164   39.9299 R7         2 LUT      0.087068
    198 H202       74.3920   61.0660   40.4425 R7         2 LUT      0.087068
    199 H201       72.5887   61.1656   40.8242 R7         2 LUT      0.087068
    200 H193       68.6426   59.8992   45.3657 R4         2 LUT      0.089716
    201 H192       69.1758   60.5990   43.9695 R4         2 LUT      0.089716
    202 H191       70.1517   59.4117   44.8372 R4         2 LUT      0.089716
    203 H183       65.5185   63.5127   47.6534 R1         2 LUT      0.094572
    204 H182       67.0968   64.4014   47.5825 R1         2 LUT      0.094572
    205 H181       66.9639   62.8865   46.6534 R1         2 LUT      0.094572
    206 H173       68.9216   63.0579   51.1188 T4         2 LUT      0.093752
    207 H172       69.4081   61.7559   52.1569 T4         2 LUT      0.093752
    208 H171       70.3882   62.1414   50.6368 T4         2 LUT      0.093752
    209 H163       69.5329   59.4922   51.1156 T4         2 LUT      0.093752
    210 H162       68.5235   59.1143   49.6553 T4         2 LUT      0.093752
    211 H161       70.0304   59.9799   49.4972 T4         2 LUT      0.093752
    212 HO3        65.9692   62.5880   53.0625 Q1         2 LUT      0.300121
    213 H8         69.6674   63.0968   47.0222 U7         2 LUT      0.080784
    214 H7         68.7709   60.1927   47.4931 U6         2 LUT      0.042190
    215 H42        65.5157   63.8236   49.7124 U5         2 LUT      0.145166
    216 H41        67.1351   64.1510   50.4690 U5         2 LUT      0.145166
    217 H35        77.2558   64.8373   42.2833 T3         2 LUT      0.077919
    218 H34        78.3201   63.3926   39.7049 T2         2 LUT      0.073626
    219 H32        80.0751   63.9891   38.6967 T1         2 LUT      0.092510
    220 H31        82.0312   65.9469   39.8956 U9         2 LUT      0.070048
    221 H30        82.0424   64.2236   37.3565 U8         2 LUT      0.085442
    222 H3         65.1570   61.9438   50.7710 U3         2 LUT     -0.031596
    223 H28        83.7035   64.2730   35.9692 U7         2 LUT      0.084728
    224 H27        85.8737   66.5558   36.1648 U6         2 LUT      0.087291
    225 H26        85.6216   64.0231   34.6200 Q6         2 LUT      0.075325
    226 H24        87.0460   66.1853   31.5853 Q5         2 LUT      0.094482
    227 H23        89.0020   66.0083   33.1094 U3         2 LUT     -0.024869
    228 H22        66.6549   60.2404   50.4662 U2         2 LUT      0.127376
    229 H21        67.3357   60.9270   52.0760 U2         2 LUT      0.127376
    230 H15        76.3104   62.7030   40.3115 T3         2 LUT      0.093200
    231 H14        74.9790   64.1306   42.7223 T2         2 LUT      0.068865
    232 H12        73.2412   63.4715   43.8522 T1         2 LUT      0.095507
    233 H11        71.5211   61.0424   43.1871 U9         2 LUT      0.068930
    234 H10        71.5602   62.9840   45.6334 U8         2 LUT      0.083911
    235 H1         88.5148   63.9704   31.2184 Q1         2 LUT      0.297311
@<TRIPOS>BOND
    1     6     1 1
    2     7     2 1
    3     8     3 1
    4     9     4 1
    5    11     4 1
    6    12     6 1
    7    13     9 1
    8    16     9 1
    9    25     5 1
   10    25    16 1
   11    26    10 1
   12    26    17 1
   13    27    18 1
   14    28    14 1
   15    28    19 1
   16    29    12 1
   17    30    13 1
   18    31    24 1
   19    32     1 1
   20    32    25 1
   21    33    21 1
   22    33    26 1
   23    34    22 1
   24    34    27 1
   25    35    23 1
   26    35    28 1
   27    36    12 1
   28    36    24 1
   29    37    13 1
   30    37    15 1
   31    38    31 1
   32    39    20 1
   33    39    32 1
   34    40     2 1
   35    40    33 1
   36    41     3 1
   37    41    34 1
   38    42     4 1
   39    42    35 1
   40    43    38 1
   41    44     5 1
   42    44    17 1
   43    44    39 1
   44    45    10 1
   45    45    18 1
   46    45    40 1
   47    46    19 1
   48    46    41 1
   49    47    14 1
   50    47    16 1
   51    47    42 1
   52    48    38 1
   53    49    48 1
   54    50    49 1
   55    51    50 1
   56    52    51 1
   57    53    51 1
   58    54    53 1
   59    55    54 1
   60    56    55 1
   61    57    56 1
   62    58    56 1
   63    59    58 1
   64    60    59 1
   65    61    60 1
   66    62    61 1
   67    63    61 1
   68    64    27 1
   69    64    46 1
   70    65     5 1
   71    65    10 1
   72    65    64 1
   73    65    14 1
   74    66    23 1
   75    67    23 1
   76    68    23 1
   77    69    22 1
   78    70    22 1
   79    71    22 1
   80    72    21 1
   81    73    21 1
   82    74    21 1
   83    75    20 1
   84    76    20 1
   85    77    20 1
   86    78    15 1
   87    79    15 1
   88    80    15 1
   89    81     8 1
   90    82     8 1
   91    83     8 1
   92    84     7 1
   93    85     7 1
   94    86     6 1
   95    87     6 1
   96    88     3 1
   97    89     3 1
   98    90     1 1
   99    91     1 1
  100    92    63 1
  101    93    63 1
  102    94    63 1
  103    95    62 1
  104    96    62 1
  105    97    62 1
  106    98    60 1
  107    99    60 1
  108   100    59 1
  109   101    59 1
  110   102    58 1
  111   103    58 1
  112   104    57 1
  113   105    57 1
  114   106    57 1
  115   107    55 1
  116   108    55 1
  117   109    54 1
  118   110    54 1
  119   111    53 1
  120   112    53 1
  121   113    19 1
  122   114    18 1
  123   115    17 1
  124   116     9 1
  125   117     2 1
  126   118    52 1
  127   119    52 1
  128   120    52 1
  129   121    51 1
  130   122    50 1
  131   123    50 1
  132   124    49 1
  133   125    49 1
  134   126    48 1
  135   127    48 1
  136   128    43 1
  137   129    43 1
  138   130    43 1
  139   131    39 1
  140   132    32 1
  141   133    31 1
  142   134    61 1
  143   135    56 1
  144   136    24 1
  145   137    24 1
  146   139   138 1
  147   140   139 1
  148   141   140 1
  149   142   140 1
  150   143   142 1
  151   144   138 1
  152   144   143 1
  153   145   144 1
  154   146   145 1
  155   147   146 1
  156   148   147 1
  157   149   148 1
  158   150   149 1
  159   151   150 1
  160   152   151 1
  161   153   152 1
  162   154   138 1
  163   155   138 1
  164   156   143 1
  165   157   147 1
  166   158   151 1
  167   160   159 1
  168   161   160 1
  169   162   161 1
  170   163   161 1
  171   164   163 1
  172   165   159 1
  173   165   164 1
  174   166   165 1
  175   167   166 1
  176   168   167 1
  177   169   168 1
  178   170   169 1
  179   171   170 1
  180   172   171 1
  181   173   172 1
  182   174   153 1
  183   174   173 1
  184   175   159 1
  185   176   159 1
  186   177   164 1
  187   178   168 1
  188   179   172 1
  189   180   179 1
  190   181   179 1
  191   182   179 1
  192   183   178 1
  193   184   178 1
  194   185   178 1
  195   186   177 1
  196   187   177 1
  197   188   177 1
  198   189   176 1
  199   190   176 1
  200   191   176 1
  201   192   175 1
  202   193   175 1
  203   194   175 1
  204   195   160 1
  205   196   160 1
  206   197   158 1
  207   198   158 1
  208   199   158 1
  209   200   157 1
  210   201   157 1
  211   202   157 1
  212   203   156 1
  213   204   156 1
  214   205   156 1
  215   206   155 1
  216   207   155 1
  217   208   155 1
  218   209   154 1
  219   210   154 1
  220   211   154 1
  221   212   141 1
  222   213   146 1
  223   214   145 1
  224   215   142 1
  225   216   142 1
  226   217   174 1
  227   218   173 1
  228   219   171 1
  229   220   170 1
  230   221   169 1
  231   222   140 1
  232   223   167 1
  233   224   166 1
  234   225   165 1
  235   226   163 1
  236   227   161 1
  237   228   139 1
  238   229   139 1
  239   230   153 1
  240   231   152 1
  241   232   150 1
  242   233   149 1
  243   234   148 1
  244   235   162 1
  245   65    153 1
  246   65    174 1
@<TRIPOS>SUBSTRUCTURE
      1 CLA               1 ****               0 ****  **** 
      2 LUT             138 ****               0 ****  **** 
