@<TRIPOS>MOLECULE
Cpptraj generated mol2 file.
  235   246     2     0     0
SMALL
USER_CHARGES


@<TRIPOS>ATOM
      1 CAA        79.8504   58.7493   34.0953 a2         1 CLA     -0.055900
      2 CAB        79.8473   62.3547   43.4544 c8         1 CLA     -0.148500
      3 CAC        73.0751   57.9519   42.7311 a2         1 CLA     -0.012600
      4 CAD        75.6244   56.1609   35.3349 ck         1 CLA      0.398800
      5 NA         78.8317   59.1590   37.6201 ns         1 CLA     -0.225500
      6 CBA        81.1667   58.8495   33.3227 a2         1 CLA     -0.135000
      7 CBB        80.4610   63.4598   43.7662 c0         1 CLA     -0.395200
      8 CBC        73.1815   56.4868   42.9069 a3         1 CLA     -0.037700
      9 CBD        77.1760   56.6804   34.9782 a1         1 CLA     -0.053900
     10 NB         78.7694   60.4530   40.3938 nm         1 CLA     -0.295700
     11 OBD        75.1160   55.3022   34.6275 o2         1 CLA     -0.494600
     12 CGA        81.8602   57.5847   32.8672 c4         1 CLA      0.827000
     13 CGD        78.2558   55.6054   35.0048 c4         1 CLA      0.655300
     14 ND         75.9780   58.2510   38.2282 nm         1 CLA     -0.291600
     15 CED        78.7441   53.4863   35.9059 a3         1 CLA      0.005400
     16 CHA        77.4518   57.6647   36.2028 cs         1 CLA     -0.123800
     17 CHB        80.5703   60.4623   38.7332 aa         1 CLA     -0.291900
     18 CHC        77.5093   60.4497   42.5343 aa         1 CLA     -0.090400
     19 CHD        74.2408   57.9277   39.8980 aa         1 CLA     -0.052000
     20 CMA        82.2523   58.6202   36.9723 a3         1 CLA     -0.230700
     21 CMB        82.0197   62.0753   41.2368 a3         1 CLA     -0.180800
     22 CMC        75.1307   59.7717   44.4973 a3         1 CLA     -0.134000
     23 CMD        72.8825   56.1829   37.5908 a3         1 CLA     -0.141100
     24 C1         82.9205   55.6433   33.8903 a2         1 CLA      0.023000
     25 C1A        78.6823   58.3303   36.4814 ac         1 CLA     -0.015100
     26 C1B        80.0256   60.8231   40.0067 cr         1 CLA      0.054700
     27 C1C        76.3546   59.7637   42.1451 cn         1 CLA     -0.005600
     28 C1D        74.7302   57.7368   38.5733 ap         1 CLA     -0.047300
     29 O1A        81.7148   56.9483   31.8146 o2         1 CLA     -0.610800
     30 O1D        79.1614   55.4128   34.2258 o2         1 CLA     -0.558200
     31 C2         83.4455   55.3321   35.2881 c8         1 CLA     -0.325100
     32 C2A        79.9925   58.3298   35.6240 a1         1 CLA      0.098600
     33 C2B        80.6426   61.5263   41.1577 cb         1 CLA      0.088500
     34 C2C        75.2077   59.4308   43.0674 cb         1 CLA      0.053700
     35 C2D        74.1878   56.9576   37.5014 cb         1 CLA      0.058900
     36 O2A        82.4412   57.0524   33.9797 o1         1 CLA     -0.437200
     37 O2D        77.9836   54.6957   36.0065 o1         1 CLA     -0.357600
     38 C3         84.6744   54.8851   35.5548 c5         1 CLA      0.031200
     39 C3A        80.9709   59.2411   36.4577 a1         1 CLA      0.166800
     40 C3B        79.7347   61.6283   42.1866 cb         1 CLA      0.035000
     41 C3C        74.3637   58.5837   42.2801 cb         1 CLA     -0.089900
     42 C3D        75.2437   56.8910   36.5785 cb         1 CLA     -0.035900
     43 C4         85.1815   53.4990   35.6352 a3         1 CLA     -0.053300
     44 C4A        80.1176   59.7414   37.6473 ac         1 CLA      0.001800
     45 C4B        78.6397   60.8274   41.7206 cn         1 CLA     -0.020900
     46 C4C        74.8818   58.5578   40.9978 cr         1 CLA     -0.044400
     47 C4D        76.2832   57.7736   36.9687 c6         1 CLA     -0.046000
     48 C5         85.8196   55.8909   35.7784 a2         1 CLA     -0.070400
     49 C6         86.4738   55.8958   37.1691 a2         1 CLA      0.043900
     50 C7         87.5251   57.0159   37.3015 a2         1 CLA     -0.150000
     51 C8         87.6973   57.5710   38.8270 a1         1 CLA      0.064200
     52 C9         88.7012   58.7635   38.8339 a3         1 CLA     -0.259300
     53 C10        88.0150   56.5202   39.8843 a2         1 CLA     -0.071900
     54 C11        88.3207   57.0438   41.2880 a2         1 CLA      0.014500
     55 C12        87.5821   56.3972   42.4637 a2         1 CLA     -0.112100
     56 C13        87.8134   57.2190   43.6961 a1         1 CLA      0.089200
     57 C14        89.2829   57.4386   44.1316 a3         1 CLA     -0.239100
     58 C15        86.8657   56.5660   44.7892 a2         1 CLA     -0.102200
     59 C16        86.8344   57.3172   46.1520 a2         1 CLA      0.023900
     60 C17        85.5291   56.8950   46.8185 a2         1 CLA     -0.105700
     61 C18        85.0677   57.8728   47.9229 a1         1 CLA      0.206800
     62 C19        83.6205   57.6846   48.3788 a3         1 CLA     -0.280100
     63 C20        86.0265   57.9416   49.1421 a3         1 CLA     -0.280100
     64 NC         76.0695   59.2715   40.9487 nx         1 CLA     -0.309200
     65 MG         77.3075   59.3589   39.2497 mg         1 CLA      0.895000
     66 HMD3       72.8135   55.7348   38.5562 dc         1 CLA      0.064300
     67 HMD2       71.9919   56.7762   37.3574 dc         1 CLA      0.064300
     68 HMD1       72.8902   55.2869   36.8806 dc         1 CLA      0.064300
     69 HMC3       76.0015   59.4210   45.0792 dc         1 CLA      0.052100
     70 HMC2       75.1541   60.8696   44.5866 dc         1 CLA      0.052100
     71 HMC1       74.1661   59.3939   44.8882 dc         1 CLA      0.052100
     72 HMB3       82.4904   62.1008   42.2172 dc         1 CLA      0.063600
     73 HMB2       82.5715   61.4712   40.6508 dc         1 CLA      0.063600
     74 HMB1       82.1552   63.0336   40.7112 dc         1 CLA      0.063600
     75 HMA3       82.7822   57.9461   36.2946 dc         1 CLA      0.058300
     76 HMA2       82.9726   59.4488   37.2278 dc         1 CLA      0.058300
     77 HMA1       82.0123   58.1406   37.9465 dc         1 CLA      0.058300
     78 HED3       79.7961   53.7389   36.2052 dc         1 CLA      0.079300
     79 HED2       78.2466   52.6914   36.5613 dc         1 CLA      0.079300
     80 HED1       78.8792   53.0892   34.8934 dc         1 CLA      0.079300
     81 HBC3       74.2286   56.3626   43.0188 dc         1 CLA      0.016300
     82 HBC2       72.6120   56.2526   43.8056 dc         1 CLA      0.016300
     83 HBC1       72.8050   56.0920   41.9853 dc         1 CLA      0.016300
     84 HBB2       80.2523   63.8932   44.7196 da         1 CLA      0.183000
     85 HBB1       81.1201   64.0102   43.0816 da         1 CLA      0.183000
     86 HBA2       80.8798   59.3430   32.4096 dc         1 CLA      0.029400
     87 HBA1       81.8874   59.6030   33.8039 dc         1 CLA      0.029400
     88 HAC2       72.8146   58.3326   43.7278 dc         1 CLA      0.029300
     89 HAC1       72.2738   58.1809   41.9894 dc         1 CLA      0.029300
     90 HAA2       79.2117   57.9900   33.5850 dc         1 CLA      0.028700
     91 HAA1       79.3072   59.6629   33.9909 dc         1 CLA      0.028700
     92 H203       85.8915   58.8582   49.6995 dc         1 CLA      0.065600
     93 H202       85.8641   57.1115   49.7375 dc         1 CLA      0.065600
     94 H201       87.0749   57.9927   48.8918 dc         1 CLA      0.065600
     95 H193       83.3694   58.3477   49.1575 dc         1 CLA      0.065600
     96 H192       82.8895   57.7982   47.6204 dc         1 CLA      0.065600
     97 H191       83.4956   56.6595   48.8008 dc         1 CLA      0.065600
     98 H172       84.7199   56.7731   46.1296 dc         1 CLA      0.027600
     99 H171       85.6605   55.8744   47.2974 dc         1 CLA      0.027600
    100 H162       87.7866   57.2125   46.6827 dc         1 CLA      0.002900
    101 H161       86.9058   58.3911   45.9265 dc         1 CLA      0.002900
    102 H152       85.8309   56.5123   44.3707 dc         1 CLA      0.029100
    103 H151       87.2076   55.5880   44.9554 dc         1 CLA      0.029100
    104 H143       89.4946   57.4940   45.1859 dc         1 CLA      0.063600
    105 H142       89.8897   56.5893   43.7328 dc         1 CLA      0.063600
    106 H141       89.6018   58.3475   43.6286 dc         1 CLA      0.063600
    107 H122       86.5440   56.2622   42.1564 dc         1 CLA      0.032500
    108 H121       88.1023   55.4631   42.5303 dc         1 CLA      0.032500
    109 H112       89.3724   57.2030   41.3778 dc         1 CLA      0.006600
    110 H111       87.8384   58.0080   41.2450 dc         1 CLA      0.006600
    111 H102       87.1232   55.8898   40.0216 dc         1 CLA      0.024100
    112 H101       88.8189   55.8267   39.4532 dc         1 CLA      0.024100
    113 HHD        73.2786   57.5645   40.1545 da         1 CLA      0.174300
    114 HHC        77.3281   60.9174   43.5366 da         1 CLA      0.136800
    115 HHB        81.5931   60.8088   38.5289 da         1 CLA      0.138300
    116 HBD        77.2208   57.1699   33.9791 dc         1 CLA      0.107700
    117 HAB        79.2092   61.9159   44.2266 da         1 CLA      0.155200
    118 H93        89.8054   58.5260   38.7383 dc         1 CLA      0.069500
    119 H92        88.4703   59.4173   37.9824 dc         1 CLA      0.069500
    120 H91        88.3662   59.4417   39.6626 dc         1 CLA      0.069500
    121 H8         86.6780   57.8933   39.0639 dc         1 CLA      0.029300
    122 H72        88.4434   56.7285   36.8446 dc         1 CLA      0.044400
    123 H71        87.1886   57.8751   36.6904 dc         1 CLA      0.044400
    124 H62        85.6441   56.0218   37.8374 dc         1 CLA      0.015600
    125 H61        86.8574   54.8948   37.3346 dc         1 CLA      0.015600
    126 H52        86.5277   55.7523   35.0137 dc         1 CLA      0.033200
    127 H51        85.5357   56.8646   35.5944 dc         1 CLA      0.033200
    128 H43        84.4186   52.8071   35.3880 dc         1 CLA      0.037000
    129 H42        85.9891   53.3842   34.8769 dc         1 CLA      0.037000
    130 H41        85.6723   53.2671   36.6113 dc         1 CLA      0.037000
    131 H3A        81.1959   60.0504   35.7801 dc         1 CLA      0.041100
    132 H2A        80.4254   57.3430   35.5279 dc         1 CLA      0.083100
    133 H2         82.7288   55.6469   36.0109 da         1 CLA      0.180900
    134 H18        85.1377   58.8488   47.4376 dc         1 CLA     -0.003900
    135 H13        87.3003   58.1320   43.4500 dc         1 CLA      0.019700
    136 H12        82.3306   54.8792   33.4531 dc         1 CLA      0.120400
    137 H11        83.6953   55.7916   33.2196 dc         1 CLA      0.120400
    138 C1         69.0411   62.2249   50.2303 Z1         2 LUT      0.509236
    139 C2         68.8936   63.4228   51.2250 Z2         2 LUT     -0.434695
    140 C3         67.6245   64.2572   51.1484 Z3         2 LUT      0.437453
    141 O3         68.0293   65.6429   51.5457 S1         2 LUT     -0.547129
    142 C4         67.2022   64.2896   49.6360 Z4         2 LUT     -0.468603
    143 C5         68.0782   63.7105   48.5484 Z5         2 LUT      0.279246
    144 C6         69.0187   62.7291   48.8186 Z6         2 LUT     -0.305473
    145 C7         70.0179   62.2455   47.8587 Z7         2 LUT      0.069402
    146 C8         70.8495   62.9488   47.0470 Z8         2 LUT     -0.191631
    147 C9         71.6493   62.4230   45.9033 Z9         2 LUT      0.196698
    148 C10        72.5133   63.2048   45.2481 Y1         2 LUT     -0.208611
    149 C11        73.3329   62.8744   44.1785 Y2         2 LUT      0.030784
    150 C12        74.2743   63.7285   43.7272 Y3         2 LUT     -0.220316
    151 C13        75.2039   63.5593   42.6111 Y4         2 LUT      0.215937
    152 C14        76.3320   64.4377   42.6152 Y5         2 LUT     -0.185793
    153 C15        77.4961   64.3965   41.7947 Y6         2 LUT     -0.057835
    154 C16        67.8764   61.2601   50.6074 Y7         2 LUT     -0.405615
    155 C17        70.3151   61.4307   50.7886 Y7         2 LUT     -0.405615
    156 C18        67.9773   64.4500   47.3116 Y9         2 LUT     -0.369639
    157 C19        71.3999   61.0407   45.3556 W1         2 LUT     -0.333362
    158 C20        74.8010   62.7105   41.4277 W2         2 LUT     -0.323439
    159 C21        88.6500   66.1354   35.5327 Z1         2 LUT      0.406104
    160 C22        89.2344   65.6138   34.2306 Z2         2 LUT     -0.404965
    161 C23        89.4675   66.7677   33.2586 Z3         2 LUT      0.391255
    162 O23        90.2264   66.3750   32.1387 S1         2 LUT     -0.528210
    163 C24        88.2544   67.6275   32.9684 W6         2 LUT     -0.258361
    164 C25        87.1268   67.5975   33.6954 Z5         2 LUT      0.133546
    165 C26        87.1622   66.7205   35.0323 W8         2 LUT     -0.147008
    166 C27        86.3227   67.2849   36.1204 Z7         2 LUT      0.023843
    167 C28        85.2449   66.7393   36.7003 Z8         2 LUT     -0.216987
    168 C29        84.6124   67.1884   37.9918 Z9         2 LUT      0.206524
    169 C30        83.5657   66.5291   38.4380 Y1         2 LUT     -0.215556
    170 C31        82.7432   66.6693   39.5448 Y2         2 LUT      0.025142
    171 C32        81.6643   65.8719   39.8882 Y3         2 LUT     -0.212209
    172 C33        80.7522   66.1502   40.9921 Y4         2 LUT      0.240937
    173 C34        79.6031   65.4447   40.9311 Y5         2 LUT     -0.218862
    174 C35        78.5066   65.3387   41.8181 Y6         2 LUT     -0.023547
    175 C36        89.5215   67.2428   36.1381 Y7         2 LUT     -0.393485
    176 C37        88.4948   64.8162   36.4159 Y7         2 LUT     -0.393485
    177 C38        85.9170   68.5002   33.3657 Y9         2 LUT     -0.387526
    178 C39        85.0639   68.4765   38.5606 W1         2 LUT     -0.322618
    179 C40        81.1361   67.2678   41.9522 W2         2 LUT     -0.358472
    180 H403       82.2213   67.2795   42.3031 R7         2 LUT      0.097720
    181 H402       80.8784   68.2484   41.6020 R7         2 LUT      0.097720
    182 H401       80.6132   67.2422   42.8864 R7         2 LUT      0.097720
    183 H393       84.5158   68.7602   39.5876 R4         2 LUT      0.082505
    184 H392       86.1324   68.4653   38.7581 R4         2 LUT      0.082505
    185 H391       84.8641   69.1853   37.7514 R4         2 LUT      0.082505
    186 H383       85.0825   67.8375   33.6727 R1         2 LUT      0.104030
    187 H382       85.9514   69.4054   33.9415 R1         2 LUT      0.104030
    188 H381       85.9639   68.6207   32.2780 R1         2 LUT      0.104030
    189 H373       89.4846   64.4521   36.7429 T4         2 LUT      0.089537
    190 H372       88.0227   65.0057   37.4057 T4         2 LUT      0.089537
    191 H371       87.9776   63.9893   35.8671 T4         2 LUT      0.089537
    192 H363       89.3028   67.5014   37.1438 T4         2 LUT      0.089537
    193 H362       90.5473   66.9804   36.1182 T4         2 LUT      0.089537
    194 H361       89.3648   68.1564   35.6145 T4         2 LUT      0.089537
    195 H222       90.2218   65.1502   34.3674 U2         2 LUT      0.127376
    196 H221       88.5954   64.7989   33.7770 U2         2 LUT      0.127376
    197 H203       74.3206   61.7998   41.8173 R7         2 LUT      0.087068
    198 H202       74.0886   63.1013   40.7154 R7         2 LUT      0.087068
    199 H201       75.7161   62.4462   40.8675 R7         2 LUT      0.087068
    200 H193       70.6841   61.0746   44.4709 R4         2 LUT      0.089716
    201 H192       72.2059   60.5391   44.9853 R4         2 LUT      0.089716
    202 H191       70.9797   60.4083   46.0459 R4         2 LUT      0.089716
    203 H183       66.9970   64.7444   47.0969 R1         2 LUT      0.094572
    204 H182       68.5769   65.2960   47.4533 R1         2 LUT      0.094572
    205 H181       68.2469   63.8729   46.4895 R1         2 LUT      0.094572
    206 H173       71.0942   62.1825   50.7711 T4         2 LUT      0.093752
    207 H172       70.1492   60.9903   51.7832 T4         2 LUT      0.093752
    208 H171       70.6386   60.6185   50.0919 T4         2 LUT      0.093752
    209 H163       67.8305   60.2963   50.0506 T4         2 LUT      0.093752
    210 H162       67.9109   61.0550   51.6296 T4         2 LUT      0.093752
    211 H161       66.9182   61.7316   50.3656 T4         2 LUT      0.093752
    212 HO3        67.2807   66.1271   52.0026 Q1         2 LUT      0.300121
    213 H8         70.9648   64.0559   47.2660 U7         2 LUT      0.080784
    214 H7         70.0148   61.1859   47.6798 U6         2 LUT      0.042190
    215 H42        66.2405   63.7334   49.4740 U5         2 LUT      0.145166
    216 H41        67.0417   65.3652   49.5103 U5         2 LUT      0.145166
    217 H35        78.3767   66.0982   42.6054 T3         2 LUT      0.077919
    218 H34        79.4805   64.9192   40.0077 T2         2 LUT      0.073626
    219 H32        81.4185   65.0354   39.2806 T1         2 LUT      0.092510
    220 H31        82.7835   67.5159   40.1839 U9         2 LUT      0.070048
    221 H30        83.2603   65.6330   37.8668 U8         2 LUT      0.085442
    222 H3         66.7752   63.7645   51.7484 U3         2 LUT     -0.031596
    223 H28        84.7777   65.8559   36.3347 U7         2 LUT      0.084728
    224 H27        86.6917   68.1847   36.4179 U6         2 LUT      0.087291
    225 H26        86.6817   65.8407   34.8015 Q6         2 LUT      0.075325
    226 H24        88.3031   68.2752   32.1460 Q5         2 LUT      0.094482
    227 H23        90.1897   67.3680   33.7679 U3         2 LUT     -0.024869
    228 H22        68.9186   63.1518   52.3076 U2         2 LUT      0.127376
    229 H21        69.6525   64.1999   51.0100 U2         2 LUT      0.127376
    230 H15        77.5454   63.6007   41.0177 T3         2 LUT      0.093200
    231 H14        76.3458   65.0647   43.4763 T2         2 LUT      0.068865
    232 H12        74.3055   64.6069   44.3792 T1         2 LUT      0.095507
    233 H11        73.3224   61.9074   43.6784 U9         2 LUT      0.068930
    234 H10        72.6436   64.1759   45.6927 U8         2 LUT      0.083911
    235 H1         89.6829   65.9975   31.3975 Q1         2 LUT      0.297311
@<TRIPOS>BOND
    1     6     1 1
    2     7     2 1
    3     8     3 1
    4     9     4 1
    5    11     4 1
    6    12     6 1
    7    13     9 1
    8    16     9 1
    9    25     5 1
   10    25    16 1
   11    26    10 1
   12    26    17 1
   13    27    18 1
   14    28    14 1
   15    28    19 1
   16    29    12 1
   17    30    13 1
   18    31    24 1
   19    32     1 1
   20    32    25 1
   21    33    21 1
   22    33    26 1
   23    34    22 1
   24    34    27 1
   25    35    23 1
   26    35    28 1
   27    36    12 1
   28    36    24 1
   29    37    13 1
   30    37    15 1
   31    38    31 1
   32    39    20 1
   33    39    32 1
   34    40     2 1
   35    40    33 1
   36    41     3 1
   37    41    34 1
   38    42     4 1
   39    42    35 1
   40    43    38 1
   41    44     5 1
   42    44    17 1
   43    44    39 1
   44    45    10 1
   45    45    18 1
   46    45    40 1
   47    46    19 1
   48    46    41 1
   49    47    14 1
   50    47    16 1
   51    47    42 1
   52    48    38 1
   53    49    48 1
   54    50    49 1
   55    51    50 1
   56    52    51 1
   57    53    51 1
   58    54    53 1
   59    55    54 1
   60    56    55 1
   61    57    56 1
   62    58    56 1
   63    59    58 1
   64    60    59 1
   65    61    60 1
   66    62    61 1
   67    63    61 1
   68    64    27 1
   69    64    46 1
   70    65     5 1
   71    65    10 1
   72    65    64 1
   73    65    14 1
   74    66    23 1
   75    67    23 1
   76    68    23 1
   77    69    22 1
   78    70    22 1
   79    71    22 1
   80    72    21 1
   81    73    21 1
   82    74    21 1
   83    75    20 1
   84    76    20 1
   85    77    20 1
   86    78    15 1
   87    79    15 1
   88    80    15 1
   89    81     8 1
   90    82     8 1
   91    83     8 1
   92    84     7 1
   93    85     7 1
   94    86     6 1
   95    87     6 1
   96    88     3 1
   97    89     3 1
   98    90     1 1
   99    91     1 1
  100    92    63 1
  101    93    63 1
  102    94    63 1
  103    95    62 1
  104    96    62 1
  105    97    62 1
  106    98    60 1
  107    99    60 1
  108   100    59 1
  109   101    59 1
  110   102    58 1
  111   103    58 1
  112   104    57 1
  113   105    57 1
  114   106    57 1
  115   107    55 1
  116   108    55 1
  117   109    54 1
  118   110    54 1
  119   111    53 1
  120   112    53 1
  121   113    19 1
  122   114    18 1
  123   115    17 1
  124   116     9 1
  125   117     2 1
  126   118    52 1
  127   119    52 1
  128   120    52 1
  129   121    51 1
  130   122    50 1
  131   123    50 1
  132   124    49 1
  133   125    49 1
  134   126    48 1
  135   127    48 1
  136   128    43 1
  137   129    43 1
  138   130    43 1
  139   131    39 1
  140   132    32 1
  141   133    31 1
  142   134    61 1
  143   135    56 1
  144   136    24 1
  145   137    24 1
  146   139   138 1
  147   140   139 1
  148   141   140 1
  149   142   140 1
  150   143   142 1
  151   144   138 1
  152   144   143 1
  153   145   144 1
  154   146   145 1
  155   147   146 1
  156   148   147 1
  157   149   148 1
  158   150   149 1
  159   151   150 1
  160   152   151 1
  161   153   152 1
  162   154   138 1
  163   155   138 1
  164   156   143 1
  165   157   147 1
  166   158   151 1
  167   160   159 1
  168   161   160 1
  169   162   161 1
  170   163   161 1
  171   164   163 1
  172   165   159 1
  173   165   164 1
  174   166   165 1
  175   167   166 1
  176   168   167 1
  177   169   168 1
  178   170   169 1
  179   171   170 1
  180   172   171 1
  181   173   172 1
  182   174   153 1
  183   174   173 1
  184   175   159 1
  185   176   159 1
  186   177   164 1
  187   178   168 1
  188   179   172 1
  189   180   179 1
  190   181   179 1
  191   182   179 1
  192   183   178 1
  193   184   178 1
  194   185   178 1
  195   186   177 1
  196   187   177 1
  197   188   177 1
  198   189   176 1
  199   190   176 1
  200   191   176 1
  201   192   175 1
  202   193   175 1
  203   194   175 1
  204   195   160 1
  205   196   160 1
  206   197   158 1
  207   198   158 1
  208   199   158 1
  209   200   157 1
  210   201   157 1
  211   202   157 1
  212   203   156 1
  213   204   156 1
  214   205   156 1
  215   206   155 1
  216   207   155 1
  217   208   155 1
  218   209   154 1
  219   210   154 1
  220   211   154 1
  221   212   141 1
  222   213   146 1
  223   214   145 1
  224   215   142 1
  225   216   142 1
  226   217   174 1
  227   218   173 1
  228   219   171 1
  229   220   170 1
  230   221   169 1
  231   222   140 1
  232   223   167 1
  233   224   166 1
  234   225   165 1
  235   226   163 1
  236   227   161 1
  237   228   139 1
  238   229   139 1
  239   230   153 1
  240   231   152 1
  241   232   150 1
  242   233   149 1
  243   234   148 1
  244   235   162 1
  245   65    153 1
  246   65    174 1
@<TRIPOS>SUBSTRUCTURE
      1 CLA               1 ****               0 ****  **** 
      2 LUT             138 ****               0 ****  **** 
