@<TRIPOS>MOLECULE
Cpptraj generated mol2 file.
  235   246     2     0     0
SMALL
USER_CHARGES


@<TRIPOS>ATOM
      1 CAA        77.9579   57.5680   33.9289 a2         1 CLA     -0.055900
      2 CAB        78.3142   61.5180   42.9221 c8         1 CLA     -0.148500
      3 CAC        71.1125   57.8146   42.5159 a2         1 CLA     -0.012600
      4 CAD        73.7313   55.2167   35.2749 ck         1 CLA      0.398800
      5 NA         76.9779   58.2338   37.3222 ns         1 CLA     -0.225500
      6 CBA        79.1175   57.0723   33.0305 a2         1 CLA     -0.135000
      7 CBB        79.3556   61.1836   43.6874 c0         1 CLA     -0.395200
      8 CBC        71.2018   56.2512   42.5089 a3         1 CLA     -0.037700
      9 CBD        75.2175   55.5454   35.0605 a1         1 CLA     -0.053900
     10 NB         76.8655   59.6457   39.9861 nm         1 CLA     -0.295700
     11 OBD        73.1516   54.3898   34.5681 o2         1 CLA     -0.494600
     12 CGA        79.1903   55.5634   32.8535 c4         1 CLA      0.827000
     13 CGD        76.0316   54.3139   35.1328 c4         1 CLA      0.655300
     14 ND         74.1002   57.4797   37.9519 nm         1 CLA     -0.291600
     15 CED        76.2282   52.3863   36.5136 a3         1 CLA      0.005400
     16 CHA        75.6027   56.6027   36.1076 cs         1 CLA     -0.123800
     17 CHB        78.8567   59.3406   38.4602 aa         1 CLA     -0.291900
     18 CHC        75.5883   60.2097   41.9407 aa         1 CLA     -0.090400
     19 CHD        72.2059   57.5702   39.5066 aa         1 CLA     -0.052000
     20 CMA        80.4363   57.3892   36.7196 a3         1 CLA     -0.230700
     21 CMB        80.4245   60.9314   40.4587 a3         1 CLA     -0.180800
     22 CMC        73.4474   59.4941   43.9983 a3         1 CLA     -0.134000
     23 CMD        70.6870   55.7385   37.2178 a3         1 CLA     -0.141100
     24 C1         80.3788   53.5645   33.6293 a2         1 CLA      0.023000
     25 C1A        76.7625   57.3447   36.2543 ac         1 CLA     -0.015100
     26 C1B        78.1955   59.8233   39.6079 cr         1 CLA      0.054700
     27 C1C        74.3774   59.4546   41.6338 cn         1 CLA     -0.005600
     28 C1D        72.7826   57.1532   38.2799 ap         1 CLA     -0.047300
     29 O1A        78.9442   54.9916   31.8157 o2         1 CLA     -0.610800
     30 O1D        76.7486   53.7904   34.2950 o2         1 CLA     -0.558200
     31 C2         81.0608   53.1527   34.9697 c8         1 CLA     -0.325100
     32 C2A        78.0515   57.2322   35.4410 a1         1 CLA      0.098600
     33 C2B        78.9094   60.5532   40.6133 cb         1 CLA      0.088500
     34 C2C        73.3626   59.1760   42.5675 cb         1 CLA      0.053700
     35 C2D        72.1592   56.2732   37.2549 cb         1 CLA      0.058900
     36 O2A        79.7756   54.9011   33.9447 o1         1 CLA     -0.437200
     37 O2D        75.8333   53.8078   36.4144 o1         1 CLA     -0.357600
     38 C3         81.5944   51.9571   35.3024 c5         1 CLA      0.031200
     39 C3A        79.0971   58.1436   36.1850 a1         1 CLA      0.166800
     40 C3B        77.9961   60.8978   41.5853 cb         1 CLA      0.035000
     41 C3C        72.3523   58.3994   41.8888 cb         1 CLA     -0.089900
     42 C3D        73.2854   56.0018   36.4319 cb         1 CLA     -0.035900
     43 C4         80.7040   50.8692   35.8180 a3         1 CLA     -0.053300
     44 C4A        78.3263   58.6370   37.4086 ac         1 CLA      0.001800
     45 C4B        76.7632   60.2724   41.1647 cn         1 CLA     -0.020900
     46 C4C        72.8750   58.2232   40.5859 cr         1 CLA     -0.044400
     47 C4D        74.4622   56.7212   36.8703 c6         1 CLA     -0.046000
     48 C5         83.0252   51.5217   34.9187 a2         1 CLA     -0.070400
     49 C6         83.9494   52.7184   35.3094 a2         1 CLA      0.043900
     50 C7         84.0509   52.8847   36.9484 a2         1 CLA     -0.150000
     51 C8         84.9793   53.9698   37.5651 a1         1 CLA      0.064200
     52 C9         86.4761   53.6463   37.3455 a3         1 CLA     -0.259300
     53 C10        84.7531   54.2485   39.1156 a2         1 CLA     -0.071900
     54 C11        83.4372   54.9650   39.4565 a2         1 CLA      0.014500
     55 C12        83.5003   55.4754   40.9068 a2         1 CLA     -0.112100
     56 C13        82.1871   56.0342   41.5893 a1         1 CLA      0.089200
     57 C14        81.5207   57.2182   40.8976 a3         1 CLA     -0.239100
     58 C15        82.3390   56.3203   43.0717 a2         1 CLA     -0.102200
     59 C16        83.0886   57.5613   43.5060 a2         1 CLA      0.023900
     60 C17        82.9849   57.8191   44.9808 a2         1 CLA     -0.105700
     61 C18        83.5735   59.2119   45.4919 a1         1 CLA      0.206800
     62 C19        82.6344   60.3844   45.1323 a3         1 CLA     -0.280100
     63 C20        83.8523   59.2177   47.0149 a3         1 CLA     -0.280100
     64 NC         74.0805   58.8714   40.4377 nx         1 CLA     -0.309200
     65 MG         75.4429   58.7252   38.8707 mg         1 CLA      0.895000
     66 HMD3       70.6689   54.9545   36.4996 dc         1 CLA      0.064300
     67 HMD2       70.4633   55.3106   38.2287 dc         1 CLA      0.064300
     68 HMD1       69.9370   56.5101   36.8756 dc         1 CLA      0.064300
     69 HMC3       73.6504   58.4817   44.4245 dc         1 CLA      0.052100
     70 HMC2       74.2933   60.0330   44.3753 dc         1 CLA      0.052100
     71 HMC1       72.5092   59.8435   44.3940 dc         1 CLA      0.052100
     72 HMB3       81.0622   60.0774   40.7206 dc         1 CLA      0.063600
     73 HMB2       80.5698   61.3451   39.4458 dc         1 CLA      0.063600
     74 HMB1       80.6457   61.7926   41.1564 dc         1 CLA      0.063600
     75 HMA3       80.9727   56.9941   35.7943 dc         1 CLA      0.058300
     76 HMA2       81.2096   58.0383   37.1319 dc         1 CLA      0.058300
     77 HMA1       80.2893   56.5729   37.3981 dc         1 CLA      0.058300
     78 HED3       75.8936   51.7534   35.7004 dc         1 CLA      0.079300
     79 HED2       77.3283   52.2500   36.5365 dc         1 CLA      0.079300
     80 HED1       75.8175   52.0518   37.4672 dc         1 CLA      0.079300
     81 HBC3       71.0423   55.8689   41.5042 dc         1 CLA      0.016300
     82 HBC2       72.1889   56.0381   42.9036 dc         1 CLA      0.016300
     83 HBC1       70.4440   55.8991   43.1606 dc         1 CLA      0.016300
     84 HBB2       79.6432   61.6114   44.6497 da         1 CLA      0.183000
     85 HBB1       80.0768   60.3943   43.3242 da         1 CLA      0.183000
     86 HBA2       78.9791   57.5502   32.0844 dc         1 CLA      0.029400
     87 HBA1       80.0232   57.4586   33.4153 dc         1 CLA      0.029400
     88 HAC2       71.0890   58.1426   43.5918 dc         1 CLA      0.029300
     89 HAC1       70.1502   58.2181   42.2101 dc         1 CLA      0.029300
     90 HAA2       77.0759   57.0656   33.5627 dc         1 CLA      0.028700
     91 HAA1       77.8121   58.6541   33.8360 dc         1 CLA      0.028700
     92 H203       82.9153   59.0514   47.6037 dc         1 CLA      0.065600
     93 H202       84.4993   58.3881   47.2879 dc         1 CLA      0.065600
     94 H201       84.3962   60.0574   47.3526 dc         1 CLA      0.065600
     95 H193       82.7016   60.4565   44.0771 dc         1 CLA      0.065600
     96 H192       81.6284   60.1366   45.4246 dc         1 CLA      0.065600
     97 H191       82.9347   61.3431   45.5854 dc         1 CLA      0.065600
     98 H172       81.9629   57.7760   45.3210 dc         1 CLA      0.027600
     99 H171       83.5670   57.0346   45.3816 dc         1 CLA      0.027600
    100 H162       84.1495   57.5245   43.1144 dc         1 CLA      0.002900
    101 H161       82.5544   58.4024   43.0244 dc         1 CLA      0.002900
    102 H152       81.2944   56.4095   43.4052 dc         1 CLA      0.029100
    103 H151       82.8725   55.5259   43.4843 dc         1 CLA      0.029100
    104 H143       81.2343   56.9658   39.8839 dc         1 CLA      0.063600
    105 H142       80.6252   57.6743   41.4533 dc         1 CLA      0.063600
    106 H141       82.2824   58.0480   40.8243 dc         1 CLA      0.063600
    107 H122       83.6694   54.5807   41.4908 dc         1 CLA      0.032500
    108 H121       84.3857   56.0883   40.9285 dc         1 CLA      0.032500
    109 H112       83.3813   55.8165   38.8429 dc         1 CLA      0.006600
    110 H111       82.6012   54.2695   39.1842 dc         1 CLA      0.006600
    111 H102       84.8252   53.2785   39.5754 dc         1 CLA      0.024100
    112 H101       85.5736   54.7832   39.5500 dc         1 CLA      0.024100
    113 HHD        71.1638   57.3011   39.6873 da         1 CLA      0.174300
    114 HHC        75.6496   60.5290   43.0038 da         1 CLA      0.136800
    115 HHB        79.8960   59.5367   38.3644 da         1 CLA      0.138300
    116 HBD        75.1321   55.9198   34.0889 dc         1 CLA      0.107700
    117 HAB        77.8017   62.4351   43.2496 da         1 CLA      0.155200
    118 H93        86.5942   53.6451   36.2858 dc         1 CLA      0.069500
    119 H92        87.0570   54.4374   37.8182 dc         1 CLA      0.069500
    120 H91        86.8046   52.6621   37.7251 dc         1 CLA      0.069500
    121 H8         84.8523   54.9399   37.0640 dc         1 CLA      0.029300
    122 H72        83.1035   53.1103   37.3873 dc         1 CLA      0.044400
    123 H71        84.3142   51.9422   37.3684 dc         1 CLA      0.044400
    124 H62        84.9995   52.5209   35.0077 dc         1 CLA      0.015600
    125 H61        83.6618   53.7041   34.8714 dc         1 CLA      0.015600
    126 H52        83.3538   50.6841   35.5306 dc         1 CLA      0.033200
    127 H51        83.1285   51.3691   33.7971 dc         1 CLA      0.033200
    128 H43        81.0287   50.4931   36.7418 dc         1 CLA      0.037000
    129 H42        79.6824   51.2104   36.0456 dc         1 CLA      0.037000
    130 H41        80.5932   50.0263   35.1260 dc         1 CLA      0.037000
    131 H3A        79.3901   58.9959   35.6038 dc         1 CLA      0.041100
    132 H2A        78.4053   56.2503   35.4794 dc         1 CLA      0.083100
    133 H2         81.2156   53.9940   35.6917 da         1 CLA      0.180900
    134 H18        84.5742   59.2882   44.9893 dc         1 CLA     -0.003900
    135 H13        81.3015   55.3323   41.5690 dc         1 CLA      0.019700
    136 H12        79.5535   52.8270   33.5132 dc         1 CLA      0.120400
    137 H11        81.0485   53.4844   32.8335 dc         1 CLA      0.120400
    138 C1         68.1874   60.5887   48.6131 Z1         2 LUT      0.509236
    139 C2         66.9463   60.1011   49.4804 Z2         2 LUT     -0.434695
    140 C3         66.2192   61.2277   50.2452 Z3         2 LUT      0.437453
    141 O3         66.8744   61.6191   51.4251 S1         2 LUT     -0.547129
    142 C4         65.9614   62.3798   49.2943 Z4         2 LUT     -0.468603
    143 C5         66.5282   62.3651   47.9069 Z5         2 LUT      0.279246
    144 C6         67.6155   61.5783   47.5529 Z6         2 LUT     -0.305473
    145 C7         67.9091   61.2510   46.1345 Z7         2 LUT      0.069402
    146 C8         69.2164   61.3141   45.6588 Z8         2 LUT     -0.191631
    147 C9         69.6211   61.1773   44.2776 Z9         2 LUT      0.196698
    148 C10        70.7782   61.7408   43.8539 Y1         2 LUT     -0.208611
    149 C11        71.4204   61.8582   42.5579 Y2         2 LUT      0.030784
    150 C12        72.5594   62.5929   42.4063 Y3         2 LUT     -0.220316
    151 C13        73.3622   62.6368   41.2303 Y4         2 LUT      0.215937
    152 C14        74.5478   63.3202   41.3147 Y5         2 LUT     -0.185793
    153 C15        75.6295   63.3074   40.3914 Y6         2 LUT     -0.057835
    154 C16        68.8735   59.2709   48.0511 Y7         2 LUT     -0.405615
    155 C17        69.1490   61.2572   49.6418 Y7         2 LUT     -0.405615
    156 C18        65.7408   63.2916   46.9986 Y9         2 LUT     -0.369639
    157 C19        68.7856   60.2752   43.3168 W1         2 LUT     -0.333362
    158 C20        72.7262   62.1956   39.9474 W2         2 LUT     -0.323439
    159 C21        87.0676   64.6515   34.9763 Z1         2 LUT      0.406104
    160 C22        87.9578   64.1933   33.8156 Z2         2 LUT     -0.404965
    161 C23        88.4089   65.2915   32.7965 Z3         2 LUT      0.391255
    162 O23        89.4664   64.8355   31.9623 S1         2 LUT     -0.528210
    163 C24        87.1510   66.0775   32.3336 W6         2 LUT     -0.258361
    164 C25        86.0340   66.0727   32.9912 Z5         2 LUT      0.133546
    165 C26        85.8134   65.2710   34.2795 W8         2 LUT     -0.147008
    166 C27        85.0321   66.1133   35.2323 Z7         2 LUT      0.023843
    167 C28        83.8612   65.6277   35.7169 Z8         2 LUT     -0.216987
    168 C29        83.1631   66.0268   36.9082 Z9         2 LUT      0.206524
    169 C30        82.0678   65.2207   37.2474 Y1         2 LUT     -0.215556
    170 C31        81.1956   65.4222   38.4192 Y2         2 LUT      0.025142
    171 C32        80.0567   64.6686   38.5880 Y3         2 LUT     -0.212209
    172 C33        79.0503   64.7514   39.6369 Y4         2 LUT      0.240937
    173 C34        77.8263   64.1197   39.6343 Y5         2 LUT     -0.218862
    174 C35        76.7353   64.0529   40.5164 Y6         2 LUT     -0.023547
    175 C36        87.8233   65.5374   35.9582 Y7         2 LUT     -0.393485
    176 C37        86.6853   63.4789   35.9232 Y7         2 LUT     -0.393485
    177 C38        84.9094   66.9939   32.4886 Y9         2 LUT     -0.387526
    178 C39        83.6022   67.2057   37.6866 W1         2 LUT     -0.322618
    179 C40        79.5688   65.4871   40.8791 W2         2 LUT     -0.358472
    180 H403       79.1416   66.5168   41.0472 R7         2 LUT      0.097720
    181 H402       79.1913   64.9193   41.6516 R7         2 LUT      0.097720
    182 H401       80.6258   65.5505   40.9342 R7         2 LUT      0.097720
    183 H393       82.8504   67.7310   38.2759 R4         2 LUT      0.082505
    184 H392       84.4359   66.8163   38.2559 R4         2 LUT      0.082505
    185 H391       84.0198   68.0970   37.1220 R4         2 LUT      0.082505
    186 H383       84.9909   67.0930   31.3550 R1         2 LUT      0.104030
    187 H382       83.8818   66.6891   32.6717 R1         2 LUT      0.104030
    188 H381       85.1742   68.0663   32.7826 R1         2 LUT      0.104030
    189 H373       86.0961   62.6960   35.3795 T4         2 LUT      0.089537
    190 H372       87.5801   63.0279   36.4182 T4         2 LUT      0.089537
    191 H371       86.0178   63.8116   36.6780 T4         2 LUT      0.089537
    192 H363       88.7557   65.0341   36.3535 T4         2 LUT      0.089537
    193 H362       88.2121   66.3917   35.4304 T4         2 LUT      0.089537
    194 H361       87.3192   65.9356   36.8159 T4         2 LUT      0.089537
    195 H222       88.9229   63.7949   34.2239 U2         2 LUT      0.127376
    196 H221       87.3550   63.3747   33.2482 U2         2 LUT      0.127376
    197 H203       72.9328   61.2281   39.5199 R7         2 LUT      0.087068
    198 H202       71.6509   62.2086   39.9312 R7         2 LUT      0.087068
    199 H201       73.1169   62.9112   39.1956 R7         2 LUT      0.087068
    200 H193       67.7749   60.7719   43.2988 R4         2 LUT      0.089716
    201 H192       69.2607   60.1328   42.3260 R4         2 LUT      0.089716
    202 H191       68.5770   59.2769   43.7222 R4         2 LUT      0.089716
    203 H183       65.8515   63.0754   45.8946 R1         2 LUT      0.094572
    204 H182       64.6683   63.4034   47.1333 R1         2 LUT      0.094572
    205 H181       66.2500   64.2289   47.1524 R1         2 LUT      0.094572
    206 H173       68.8554   62.2912   49.9531 T4         2 LUT      0.093752
    207 H172       69.2089   60.7381   50.5945 T4         2 LUT      0.093752
    208 H171       70.1230   61.2599   49.2094 T4         2 LUT      0.093752
    209 H163       69.0768   58.4462   48.7375 T4         2 LUT      0.093752
    210 H162       68.1263   58.8498   47.3889 T4         2 LUT      0.093752
    211 H161       69.8141   59.4501   47.5865 T4         2 LUT      0.093752
    212 HO3        66.2408   61.7176   52.1408 Q1         2 LUT      0.300121
    213 H8         69.9586   61.7177   46.2734 U7         2 LUT      0.080784
    214 H7         67.0633   61.0246   45.4475 U6         2 LUT      0.042190
    215 H42        64.8595   62.5683   49.3137 U5         2 LUT      0.145166
    216 H41        66.3864   63.2743   49.7357 U5         2 LUT      0.145166
    217 H35        76.8118   64.7318   41.3383 T3         2 LUT      0.077919
    218 H34        77.7145   63.4404   38.8466 T2         2 LUT      0.073626
    219 H32        79.8498   64.0317   37.7347 T1         2 LUT      0.092510
    220 H31        81.4780   66.2095   39.1149 U9         2 LUT      0.070048
    221 H30        82.0338   64.3262   36.7312 U8         2 LUT      0.085442
    222 H3         65.1986   60.8684   50.4012 U3         2 LUT     -0.031596
    223 H28        83.2913   64.8203   35.1843 U7         2 LUT      0.084728
    224 H27        85.5050   66.8833   35.7635 U6         2 LUT      0.087291
    225 H26        85.1825   64.3913   34.0293 Q6         2 LUT      0.075325
    226 H24        87.2661   66.6757   31.4771 Q5         2 LUT      0.094482
    227 H23        89.0705   65.9207   33.4678 U3         2 LUT     -0.024869
    228 H22        66.1921   59.7754   48.7707 U2         2 LUT      0.127376
    229 H21        67.1773   59.3436   50.2263 U2         2 LUT      0.127376
    230 H15        75.5417   62.7074   39.5676 T3         2 LUT      0.093200
    231 H14        74.9314   63.8012   42.2110 T2         2 LUT      0.068865
    232 H12        72.9888   63.0192   43.3333 T1         2 LUT      0.095507
    233 H11        71.0070   61.3056   41.6963 U9         2 LUT      0.068930
    234 H10        71.2257   62.4446   44.5730 U8         2 LUT      0.083911
    235 H1         89.1258   64.5778   31.1279 Q1         2 LUT      0.297311
@<TRIPOS>BOND
    1     6     1 1
    2     7     2 1
    3     8     3 1
    4     9     4 1
    5    11     4 1
    6    12     6 1
    7    13     9 1
    8    16     9 1
    9    25     5 1
   10    25    16 1
   11    26    10 1
   12    26    17 1
   13    27    18 1
   14    28    14 1
   15    28    19 1
   16    29    12 1
   17    30    13 1
   18    31    24 1
   19    32     1 1
   20    32    25 1
   21    33    21 1
   22    33    26 1
   23    34    22 1
   24    34    27 1
   25    35    23 1
   26    35    28 1
   27    36    12 1
   28    36    24 1
   29    37    13 1
   30    37    15 1
   31    38    31 1
   32    39    20 1
   33    39    32 1
   34    40     2 1
   35    40    33 1
   36    41     3 1
   37    41    34 1
   38    42     4 1
   39    42    35 1
   40    43    38 1
   41    44     5 1
   42    44    17 1
   43    44    39 1
   44    45    10 1
   45    45    18 1
   46    45    40 1
   47    46    19 1
   48    46    41 1
   49    47    14 1
   50    47    16 1
   51    47    42 1
   52    48    38 1
   53    49    48 1
   54    50    49 1
   55    51    50 1
   56    52    51 1
   57    53    51 1
   58    54    53 1
   59    55    54 1
   60    56    55 1
   61    57    56 1
   62    58    56 1
   63    59    58 1
   64    60    59 1
   65    61    60 1
   66    62    61 1
   67    63    61 1
   68    64    27 1
   69    64    46 1
   70    65     5 1
   71    65    10 1
   72    65    64 1
   73    65    14 1
   74    66    23 1
   75    67    23 1
   76    68    23 1
   77    69    22 1
   78    70    22 1
   79    71    22 1
   80    72    21 1
   81    73    21 1
   82    74    21 1
   83    75    20 1
   84    76    20 1
   85    77    20 1
   86    78    15 1
   87    79    15 1
   88    80    15 1
   89    81     8 1
   90    82     8 1
   91    83     8 1
   92    84     7 1
   93    85     7 1
   94    86     6 1
   95    87     6 1
   96    88     3 1
   97    89     3 1
   98    90     1 1
   99    91     1 1
  100    92    63 1
  101    93    63 1
  102    94    63 1
  103    95    62 1
  104    96    62 1
  105    97    62 1
  106    98    60 1
  107    99    60 1
  108   100    59 1
  109   101    59 1
  110   102    58 1
  111   103    58 1
  112   104    57 1
  113   105    57 1
  114   106    57 1
  115   107    55 1
  116   108    55 1
  117   109    54 1
  118   110    54 1
  119   111    53 1
  120   112    53 1
  121   113    19 1
  122   114    18 1
  123   115    17 1
  124   116     9 1
  125   117     2 1
  126   118    52 1
  127   119    52 1
  128   120    52 1
  129   121    51 1
  130   122    50 1
  131   123    50 1
  132   124    49 1
  133   125    49 1
  134   126    48 1
  135   127    48 1
  136   128    43 1
  137   129    43 1
  138   130    43 1
  139   131    39 1
  140   132    32 1
  141   133    31 1
  142   134    61 1
  143   135    56 1
  144   136    24 1
  145   137    24 1
  146   139   138 1
  147   140   139 1
  148   141   140 1
  149   142   140 1
  150   143   142 1
  151   144   138 1
  152   144   143 1
  153   145   144 1
  154   146   145 1
  155   147   146 1
  156   148   147 1
  157   149   148 1
  158   150   149 1
  159   151   150 1
  160   152   151 1
  161   153   152 1
  162   154   138 1
  163   155   138 1
  164   156   143 1
  165   157   147 1
  166   158   151 1
  167   160   159 1
  168   161   160 1
  169   162   161 1
  170   163   161 1
  171   164   163 1
  172   165   159 1
  173   165   164 1
  174   166   165 1
  175   167   166 1
  176   168   167 1
  177   169   168 1
  178   170   169 1
  179   171   170 1
  180   172   171 1
  181   173   172 1
  182   174   153 1
  183   174   173 1
  184   175   159 1
  185   176   159 1
  186   177   164 1
  187   178   168 1
  188   179   172 1
  189   180   179 1
  190   181   179 1
  191   182   179 1
  192   183   178 1
  193   184   178 1
  194   185   178 1
  195   186   177 1
  196   187   177 1
  197   188   177 1
  198   189   176 1
  199   190   176 1
  200   191   176 1
  201   192   175 1
  202   193   175 1
  203   194   175 1
  204   195   160 1
  205   196   160 1
  206   197   158 1
  207   198   158 1
  208   199   158 1
  209   200   157 1
  210   201   157 1
  211   202   157 1
  212   203   156 1
  213   204   156 1
  214   205   156 1
  215   206   155 1
  216   207   155 1
  217   208   155 1
  218   209   154 1
  219   210   154 1
  220   211   154 1
  221   212   141 1
  222   213   146 1
  223   214   145 1
  224   215   142 1
  225   216   142 1
  226   217   174 1
  227   218   173 1
  228   219   171 1
  229   220   170 1
  230   221   169 1
  231   222   140 1
  232   223   167 1
  233   224   166 1
  234   225   165 1
  235   226   163 1
  236   227   161 1
  237   228   139 1
  238   229   139 1
  239   230   153 1
  240   231   152 1
  241   232   150 1
  242   233   149 1
  243   234   148 1
  244   235   162 1
  245   65    153 1
  246   65    174 1
@<TRIPOS>SUBSTRUCTURE
      1 CLA               1 ****               0 ****  **** 
      2 LUT             138 ****               0 ****  **** 
