@<TRIPOS>MOLECULE
Cpptraj generated mol2 file.
  235   246     2     0     0
SMALL
USER_CHARGES


@<TRIPOS>ATOM
      1 CAA        79.9791   59.3158   33.9235 a2         1 CLA     -0.055900
      2 CAB        79.5387   61.8440   43.3091 c8         1 CLA     -0.148500
      3 CAC        72.6422   57.7761   42.0147 a2         1 CLA     -0.012600
      4 CAD        75.7287   56.5331   34.7074 ck         1 CLA      0.398800
      5 NA         78.6303   59.4343   37.2535 ns         1 CLA     -0.225500
      6 CBA        81.3307   59.2476   33.1675 a2         1 CLA     -0.135000
      7 CBB        80.1397   63.0169   43.6730 c0         1 CLA     -0.395200
      8 CBC        72.7645   56.2460   41.9813 a3         1 CLA     -0.037700
      9 CBD        77.2097   57.1030   34.5368 a1         1 CLA     -0.053900
     10 NB         78.4345   60.4214   40.0224 nm         1 CLA     -0.295700
     11 OBD        75.1772   55.7932   33.9085 o2         1 CLA     -0.494600
     12 CGA        81.6989   57.8573   32.6204 c4         1 CLA      0.827000
     13 CGD        78.1718   56.1130   34.1198 c4         1 CLA      0.655300
     14 ND         75.9498   58.3277   37.6863 nm         1 CLA     -0.291600
     15 CED        79.0256   53.9200   34.3592 a3         1 CLA      0.005400
     16 CHA        77.5389   57.9052   35.7650 cs         1 CLA     -0.123800
     17 CHB        80.3031   60.7845   38.4827 aa         1 CLA     -0.291900
     18 CHC        77.1121   60.1783   42.1802 aa         1 CLA     -0.090400
     19 CHD        74.0170   58.0586   39.2180 aa         1 CLA     -0.052000
     20 CMA        82.1188   58.9390   36.7663 a3         1 CLA     -0.230700
     21 CMB        81.6955   62.0077   40.9572 a3         1 CLA     -0.180800
     22 CMC        74.6377   59.0523   43.9747 a3         1 CLA     -0.134000
     23 CMD        72.8913   56.3320   36.7275 a3         1 CLA     -0.141100
     24 C1         82.8117   55.8014   33.1552 a2         1 CLA      0.023000
     25 C1A        78.6312   58.7143   36.0653 ac         1 CLA     -0.015100
     26 C1B        79.6908   60.9241   39.6977 cr         1 CLA      0.054700
     27 C1C        75.9409   59.5282   41.7234 cn         1 CLA     -0.005600
     28 C1D        74.6406   57.8626   37.9287 ap         1 CLA     -0.047300
     29 O1A        81.2756   57.4098   31.5541 o2         1 CLA     -0.610800
     30 O1D        78.9831   56.2791   33.2235 o2         1 CLA     -0.558200
     31 C2         83.4381   55.3523   34.4281 c8         1 CLA     -0.325100
     32 C2A        79.9792   58.6793   35.3384 a1         1 CLA      0.098600
     33 C2B        80.2877   61.5562   40.8732 cb         1 CLA      0.088500
     34 C2C        74.7899   59.0895   42.5197 cb         1 CLA      0.053700
     35 C2D        74.2054   57.0901   36.8542 cb         1 CLA      0.058900
     36 O2A        82.5494   57.2035   33.4212 o1         1 CLA     -0.437200
     37 O2D        78.1162   54.9415   34.8250 o1         1 CLA     -0.357600
     38 C3         84.7782   55.0468   34.5062 c5         1 CLA      0.031200
     39 C3A        80.8480   59.6576   36.3104 a1         1 CLA      0.166800
     40 C3B        79.3823   61.3845   41.9201 cb         1 CLA      0.035000
     41 C3C        73.9220   58.4597   41.6541 cb         1 CLA     -0.089900
     42 C3D        75.3033   57.0569   35.9846 cb         1 CLA     -0.035900
     43 C4         85.4676   53.7594   34.1091 a3         1 CLA     -0.053300
     44 C4A        79.8211   60.0079   37.4141 ac         1 CLA      0.001800
     45 C4B        78.2754   60.5601   41.4412 cn         1 CLA     -0.020900
     46 C4C        74.5668   58.5709   40.3773 cr         1 CLA     -0.044400
     47 C4D        76.3299   57.7525   36.5291 c6         1 CLA     -0.046000
     48 C5         85.8570   56.1100   34.6166 a2         1 CLA     -0.070400
     49 C6         85.5442   57.3489   35.4857 a2         1 CLA      0.043900
     50 C7         85.4812   56.9924   37.0038 a2         1 CLA     -0.150000
     51 C8         85.7954   58.2222   37.9055 a1         1 CLA      0.064200
     52 C9         87.3256   58.6211   37.8861 a3         1 CLA     -0.259300
     53 C10        85.2858   57.8973   39.3050 a2         1 CLA     -0.071900
     54 C11        85.0827   59.0193   40.4046 a2         1 CLA      0.014500
     55 C12        84.7982   58.4463   41.7878 a2         1 CLA     -0.112100
     56 C13        84.5912   59.4710   42.9793 a1         1 CLA      0.089200
     57 C14        85.9727   59.7857   43.5612 a3         1 CLA     -0.239100
     58 C15        83.6916   58.7552   44.0839 a2         1 CLA     -0.102200
     59 C16        82.1089   58.7088   43.8148 a2         1 CLA      0.023900
     60 C17        81.3842   57.7787   44.8363 a2         1 CLA     -0.105700
     61 C18        80.0221   57.2550   44.4061 a1         1 CLA      0.206800
     62 C19        79.4945   56.2637   45.4393 a3         1 CLA     -0.280100
     63 C20        79.0202   58.4130   44.2235 a3         1 CLA     -0.280100
     64 NC         75.7790   59.2012   40.4152 nx         1 CLA     -0.309200
     65 MG         77.0664   59.5609   38.8040 mg         1 CLA      0.895000
     66 HMD3       73.0018   55.4817   36.0123 dc         1 CLA      0.064300
     67 HMD2       72.5712   55.9925   37.7352 dc         1 CLA      0.064300
     68 HMD1       72.0974   56.9113   36.4825 dc         1 CLA      0.064300
     69 HMC3       75.3885   59.6365   44.3763 dc         1 CLA      0.052100
     70 HMC2       73.7171   59.6168   44.1147 dc         1 CLA      0.052100
     71 HMC1       74.6292   57.9825   44.2862 dc         1 CLA      0.052100
     72 HMB3       82.0047   62.1481   41.9747 dc         1 CLA      0.063600
     73 HMB2       82.3314   61.2615   40.4807 dc         1 CLA      0.063600
     74 HMB1       81.8346   62.9346   40.3157 dc         1 CLA      0.063600
     75 HMA3       82.5730   58.4553   35.9387 dc         1 CLA      0.058300
     76 HMA2       82.7649   59.5668   37.3078 dc         1 CLA      0.058300
     77 HMA1       82.0123   58.0350   37.3968 dc         1 CLA      0.058300
     78 HED3       78.8587   53.1013   35.0894 dc         1 CLA      0.079300
     79 HED2       78.6031   53.6511   33.4072 dc         1 CLA      0.079300
     80 HED1       80.1052   54.2868   34.3057 dc         1 CLA      0.079300
     81 HBC3       73.6364   56.0306   42.6037 dc         1 CLA      0.016300
     82 HBC2       71.8111   55.9343   42.4359 dc         1 CLA      0.016300
     83 HBC1       72.8694   55.8004   40.9613 dc         1 CLA      0.016300
     84 HBB2       80.2381   63.2955   44.6893 da         1 CLA      0.183000
     85 HBB1       80.4881   63.7448   42.9992 da         1 CLA      0.183000
     86 HBA2       81.2135   59.8883   32.3101 dc         1 CLA      0.029400
     87 HBA1       82.1119   59.6400   33.7945 dc         1 CLA      0.029400
     88 HAC2       72.3250   58.0915   43.0056 dc         1 CLA      0.029300
     89 HAC1       71.8052   57.9560   41.3416 dc         1 CLA      0.029300
     90 HAA2       79.1144   58.8658   33.3912 dc         1 CLA      0.028700
     91 HAA1       79.7177   60.3657   34.0799 dc         1 CLA      0.028700
     92 H203       79.4127   58.9724   43.3489 dc         1 CLA      0.065600
     93 H202       77.9851   58.1129   43.9683 dc         1 CLA      0.065600
     94 H201       79.0770   58.9839   45.1117 dc         1 CLA      0.065600
     95 H193       78.4669   55.9192   45.1782 dc         1 CLA      0.065600
     96 H192       80.1799   55.4740   45.5191 dc         1 CLA      0.065600
     97 H191       79.4899   56.6686   46.4406 dc         1 CLA      0.065600
     98 H172       82.0374   56.8848   44.9268 dc         1 CLA      0.027600
     99 H171       81.1703   58.2672   45.7719 dc         1 CLA      0.027600
    100 H162       81.6789   59.7392   43.8923 dc         1 CLA      0.002900
    101 H161       82.0651   58.2212   42.8605 dc         1 CLA      0.002900
    102 H152       84.0472   57.7009   44.1982 dc         1 CLA      0.029100
    103 H151       83.8531   59.2712   45.0171 dc         1 CLA      0.029100
    104 H143       85.8760   60.2375   44.5726 dc         1 CLA      0.063600
    105 H142       86.4904   58.8337   43.8076 dc         1 CLA      0.063600
    106 H141       86.5074   60.4062   42.9172 dc         1 CLA      0.063600
    107 H122       83.8449   57.8645   41.7828 dc         1 CLA      0.032500
    108 H121       85.5671   57.6945   42.0399 dc         1 CLA      0.032500
    109 H112       86.0402   59.6207   40.3840 dc         1 CLA      0.006600
    110 H111       84.3910   59.7108   39.9805 dc         1 CLA      0.006600
    111 H102       84.2473   57.5884   39.2195 dc         1 CLA      0.024100
    112 H101       85.7945   57.1193   39.7997 dc         1 CLA      0.024100
    113 HHD        73.0334   57.6072   39.4074 da         1 CLA      0.174300
    114 HHC        77.2046   60.6104   43.1868 da         1 CLA      0.136800
    115 HHB        81.2899   61.2402   38.2739 da         1 CLA      0.138300
    116 HBD        77.0460   57.7955   33.7253 dc         1 CLA      0.107700
    117 HAB        79.0848   61.2274   44.1273 da         1 CLA      0.155200
    118 H93        87.5433   59.5267   38.4767 dc         1 CLA      0.069500
    119 H92        87.9826   57.8047   38.2701 dc         1 CLA      0.069500
    120 H91        87.7173   58.7441   36.8060 dc         1 CLA      0.069500
    121 H8         85.2493   59.1120   37.6680 dc         1 CLA      0.029300
    122 H72        84.4225   56.6684   37.1849 dc         1 CLA      0.044400
    123 H71        86.1945   56.2100   37.2798 dc         1 CLA      0.044400
    124 H62        86.3877   58.0440   35.3480 dc         1 CLA      0.015600
    125 H61        84.6459   57.7759   35.1499 dc         1 CLA      0.015600
    126 H52        86.7931   55.7087   34.9759 dc         1 CLA      0.033200
    127 H51        86.1168   56.5588   33.6344 dc         1 CLA      0.033200
    128 H43        86.3658   53.7310   34.6818 dc         1 CLA      0.037000
    129 H42        84.8856   52.8864   34.4213 dc         1 CLA      0.037000
    130 H41        85.6011   53.6752   33.0759 dc         1 CLA      0.037000
    131 H3A        81.0767   60.6409   35.8885 dc         1 CLA      0.041100
    132 H2A        80.4564   57.6633   35.3858 dc         1 CLA      0.083100
    133 H2         82.7593   55.2878   35.2728 da         1 CLA      0.180900
    134 H18        80.1180   56.7361   43.4272 dc         1 CLA     -0.003900
    135 H13        84.1006   60.3957   42.5962 dc         1 CLA      0.019700
    136 H12        81.8900   55.3073   32.9781 dc         1 CLA      0.120400
    137 H11        83.3818   55.6794   32.2682 dc         1 CLA      0.120400
    138 C1         69.3381   61.8007   50.1505 Z1         2 LUT      0.509236
    139 C2         67.8916   61.2850   50.5698 Z2         2 LUT     -0.434695
    140 C3         66.8558   62.3624   50.8193 Z3         2 LUT      0.437453
    141 O3         66.4179   62.5547   52.1328 S1         2 LUT     -0.547129
    142 C4         67.1470   63.6707   50.0158 Z4         2 LUT     -0.468603
    143 C5         68.0316   63.5201   48.7561 Z5         2 LUT      0.279246
    144 C6         69.0268   62.5766   48.7291 Z6         2 LUT     -0.305473
    145 C7         69.5325   62.0839   47.4752 Z7         2 LUT      0.069402
    146 C8         70.4811   62.6248   46.6773 Z8         2 LUT     -0.191631
    147 C9         71.0136   62.1885   45.3928 Z9         2 LUT      0.196698
    148 C10        71.9677   63.0502   44.8748 Y1         2 LUT     -0.208611
    149 C11        72.7184   62.9338   43.6759 Y2         2 LUT      0.030784
    150 C12        73.9595   63.5220   43.4299 Y3         2 LUT     -0.220316
    151 C13        74.8175   63.4661   42.2888 Y4         2 LUT      0.215937
    152 C14        76.1028   64.0764   42.3719 Y5         2 LUT     -0.185793
    153 C15        77.0098   64.1476   41.3031 Y6         2 LUT     -0.057835
    154 C16        70.3296   60.6079   50.0253 Y7         2 LUT     -0.405615
    155 C17        70.0155   62.6857   51.2386 Y7         2 LUT     -0.405615
    156 C18        67.5645   64.4079   47.6127 Y9         2 LUT     -0.369639
    157 C19        70.3425   61.0340   44.6049 W1         2 LUT     -0.333362
    158 C20        74.2143   62.8490   41.1000 W2         2 LUT     -0.323439
    159 C21        88.1313   66.3269   34.6225 Z1         2 LUT      0.406104
    160 C22        88.7309   65.6727   33.3486 Z2         2 LUT     -0.404965
    161 C23        88.9245   66.6582   32.1862 Z3         2 LUT      0.391255
    162 O23        89.6511   66.0053   31.1705 S1         2 LUT     -0.528210
    163 C24        87.6459   67.5081   32.0104 W6         2 LUT     -0.258361
    164 C25        86.6434   67.5950   32.8999 Z5         2 LUT      0.133546
    165 C26        86.6311   66.7463   34.2201 W8         2 LUT     -0.147008
    166 C27        85.8356   67.3202   35.3644 Z7         2 LUT      0.023843
    167 C28        84.7191   66.7894   35.8986 Z8         2 LUT     -0.216987
    168 C29        84.1897   67.0058   37.2125 Z9         2 LUT      0.206524
    169 C30        82.9909   66.3586   37.4887 Y1         2 LUT     -0.215556
    170 C31        82.2411   66.3394   38.7105 Y2         2 LUT      0.025142
    171 C32        81.0944   65.6364   39.0310 Y3         2 LUT     -0.212209
    172 C33        80.2248   65.6784   40.1890 Y4         2 LUT      0.240937
    173 C34        79.0569   64.9491   40.2851 Y5         2 LUT     -0.218862
    174 C35        78.1830   64.8595   41.4123 Y6         2 LUT     -0.023547
    175 C36        89.1248   67.2942   35.3575 Y7         2 LUT     -0.393485
    176 C37        88.0108   65.2121   35.6282 Y7         2 LUT     -0.393485
    177 C38        85.3831   68.3375   32.6238 Y9         2 LUT     -0.387526
    178 C39        84.8712   68.0178   38.0536 W1         2 LUT     -0.322618
    179 C40        80.6589   66.7184   41.1480 W2         2 LUT     -0.358472
    180 H403       80.0263   66.8425   42.0842 R7         2 LUT      0.097720
    181 H402       81.7123   66.5682   41.4114 R7         2 LUT      0.097720
    182 H401       80.6925   67.6397   40.6433 R7         2 LUT      0.097720
    183 H393       85.1044   68.9260   37.5573 R4         2 LUT      0.082505
    184 H392       84.2680   68.3447   38.8908 R4         2 LUT      0.082505
    185 H391       85.7268   67.6027   38.5503 R4         2 LUT      0.082505
    186 H383       85.2395   68.9817   33.4747 R1         2 LUT      0.104030
    187 H382       85.3735   68.9782   31.7288 R1         2 LUT      0.104030
    188 H381       84.5392   67.5985   32.6353 R1         2 LUT      0.104030
    189 H373       87.3720   64.3526   35.2510 T4         2 LUT      0.089537
    190 H372       88.9974   64.7708   35.9071 T4         2 LUT      0.089537
    191 H371       87.4722   65.6073   36.4966 T4         2 LUT      0.089537
    192 H363       89.4102   68.1227   34.6727 T4         2 LUT      0.089537
    193 H362       88.7604   67.7258   36.3007 T4         2 LUT      0.089537
    194 H361       90.0684   66.8016   35.6376 T4         2 LUT      0.089537
    195 H222       89.8020   65.4674   33.6437 U2         2 LUT      0.127376
    196 H221       88.0965   64.8746   32.7773 U2         2 LUT      0.127376
    197 H203       74.5133   63.2239   40.1440 R7         2 LUT      0.087068
    198 H202       74.1706   61.7757   41.1225 R7         2 LUT      0.087068
    199 H201       73.1477   63.1887   41.0128 R7         2 LUT      0.087068
    200 H193       70.1622   61.3987   43.5595 R4         2 LUT      0.089716
    201 H192       70.8878   60.1350   44.4431 R4         2 LUT      0.089716
    202 H191       69.3903   60.8064   44.9096 R4         2 LUT      0.089716
    203 H183       67.3138   63.7737   46.6844 R1         2 LUT      0.094572
    204 H182       66.7323   65.0312   47.8539 R1         2 LUT      0.094572
    205 H181       68.2946   65.1716   47.3366 R1         2 LUT      0.094572
    206 H173       70.9661   62.9540   50.7079 T4         2 LUT      0.093752
    207 H172       69.5776   63.6415   51.4323 T4         2 LUT      0.093752
    208 H171       70.1699   62.2132   52.2431 T4         2 LUT      0.093752
    209 H163       69.8755   59.8304   49.3657 T4         2 LUT      0.093752
    210 H162       71.2965   60.8777   49.5138 T4         2 LUT      0.093752
    211 H161       70.7179   60.1850   50.9389 T4         2 LUT      0.093752
    212 HO3        67.1700   62.7465   52.6916 Q1         2 LUT      0.300121
    213 H8         70.9013   63.5568   46.9933 U7         2 LUT      0.080784
    214 H7         68.9602   61.1702   47.0882 U6         2 LUT      0.042190
    215 H42        66.1003   64.1178   49.7592 U5         2 LUT      0.145166
    216 H41        67.4398   64.4338   50.7360 U5         2 LUT      0.145166
    217 H35        78.3935   65.3190   42.4126 T3         2 LUT      0.077919
    218 H34        78.8715   64.5060   39.3347 T2         2 LUT      0.073626
    219 H32        80.7669   64.9082   38.2979 T1         2 LUT      0.092510
    220 H31        82.6130   67.0330   39.4615 U9         2 LUT      0.070048
    221 H30        82.7028   65.6291   36.7153 U8         2 LUT      0.085442
    222 H3         65.8665   61.9564   50.4128 U3         2 LUT     -0.031596
    223 H28        84.2122   66.0347   35.3133 U7         2 LUT      0.084728
    224 H27        86.4306   68.0654   35.9478 U6         2 LUT      0.087291
    225 H26        86.0756   65.9322   33.8197 Q6         2 LUT      0.075325
    226 H24        87.6715   68.0541   31.0972 Q5         2 LUT      0.094482
    227 H23        89.7010   67.4054   32.6008 U3         2 LUT     -0.024869
    228 H22        67.4348   60.8029   49.6774 U2         2 LUT      0.127376
    229 H21        67.8510   60.6752   51.4933 U2         2 LUT      0.127376
    230 H15        76.8116   63.7185   40.3229 T3         2 LUT      0.093200
    231 H14        76.4344   64.5451   43.2356 T2         2 LUT      0.068865
    232 H12        74.4197   64.0884   44.2129 T1         2 LUT      0.095507
    233 H11        72.2976   62.3535   42.8355 U9         2 LUT      0.068930
    234 H10        72.3420   63.8865   45.5420 U8         2 LUT      0.083911
    235 H1         89.1988   66.0834   30.3439 Q1         2 LUT      0.297311
@<TRIPOS>BOND
    1     6     1 1
    2     7     2 1
    3     8     3 1
    4     9     4 1
    5    11     4 1
    6    12     6 1
    7    13     9 1
    8    16     9 1
    9    25     5 1
   10    25    16 1
   11    26    10 1
   12    26    17 1
   13    27    18 1
   14    28    14 1
   15    28    19 1
   16    29    12 1
   17    30    13 1
   18    31    24 1
   19    32     1 1
   20    32    25 1
   21    33    21 1
   22    33    26 1
   23    34    22 1
   24    34    27 1
   25    35    23 1
   26    35    28 1
   27    36    12 1
   28    36    24 1
   29    37    13 1
   30    37    15 1
   31    38    31 1
   32    39    20 1
   33    39    32 1
   34    40     2 1
   35    40    33 1
   36    41     3 1
   37    41    34 1
   38    42     4 1
   39    42    35 1
   40    43    38 1
   41    44     5 1
   42    44    17 1
   43    44    39 1
   44    45    10 1
   45    45    18 1
   46    45    40 1
   47    46    19 1
   48    46    41 1
   49    47    14 1
   50    47    16 1
   51    47    42 1
   52    48    38 1
   53    49    48 1
   54    50    49 1
   55    51    50 1
   56    52    51 1
   57    53    51 1
   58    54    53 1
   59    55    54 1
   60    56    55 1
   61    57    56 1
   62    58    56 1
   63    59    58 1
   64    60    59 1
   65    61    60 1
   66    62    61 1
   67    63    61 1
   68    64    27 1
   69    64    46 1
   70    65     5 1
   71    65    10 1
   72    65    64 1
   73    65    14 1
   74    66    23 1
   75    67    23 1
   76    68    23 1
   77    69    22 1
   78    70    22 1
   79    71    22 1
   80    72    21 1
   81    73    21 1
   82    74    21 1
   83    75    20 1
   84    76    20 1
   85    77    20 1
   86    78    15 1
   87    79    15 1
   88    80    15 1
   89    81     8 1
   90    82     8 1
   91    83     8 1
   92    84     7 1
   93    85     7 1
   94    86     6 1
   95    87     6 1
   96    88     3 1
   97    89     3 1
   98    90     1 1
   99    91     1 1
  100    92    63 1
  101    93    63 1
  102    94    63 1
  103    95    62 1
  104    96    62 1
  105    97    62 1
  106    98    60 1
  107    99    60 1
  108   100    59 1
  109   101    59 1
  110   102    58 1
  111   103    58 1
  112   104    57 1
  113   105    57 1
  114   106    57 1
  115   107    55 1
  116   108    55 1
  117   109    54 1
  118   110    54 1
  119   111    53 1
  120   112    53 1
  121   113    19 1
  122   114    18 1
  123   115    17 1
  124   116     9 1
  125   117     2 1
  126   118    52 1
  127   119    52 1
  128   120    52 1
  129   121    51 1
  130   122    50 1
  131   123    50 1
  132   124    49 1
  133   125    49 1
  134   126    48 1
  135   127    48 1
  136   128    43 1
  137   129    43 1
  138   130    43 1
  139   131    39 1
  140   132    32 1
  141   133    31 1
  142   134    61 1
  143   135    56 1
  144   136    24 1
  145   137    24 1
  146   139   138 1
  147   140   139 1
  148   141   140 1
  149   142   140 1
  150   143   142 1
  151   144   138 1
  152   144   143 1
  153   145   144 1
  154   146   145 1
  155   147   146 1
  156   148   147 1
  157   149   148 1
  158   150   149 1
  159   151   150 1
  160   152   151 1
  161   153   152 1
  162   154   138 1
  163   155   138 1
  164   156   143 1
  165   157   147 1
  166   158   151 1
  167   160   159 1
  168   161   160 1
  169   162   161 1
  170   163   161 1
  171   164   163 1
  172   165   159 1
  173   165   164 1
  174   166   165 1
  175   167   166 1
  176   168   167 1
  177   169   168 1
  178   170   169 1
  179   171   170 1
  180   172   171 1
  181   173   172 1
  182   174   153 1
  183   174   173 1
  184   175   159 1
  185   176   159 1
  186   177   164 1
  187   178   168 1
  188   179   172 1
  189   180   179 1
  190   181   179 1
  191   182   179 1
  192   183   178 1
  193   184   178 1
  194   185   178 1
  195   186   177 1
  196   187   177 1
  197   188   177 1
  198   189   176 1
  199   190   176 1
  200   191   176 1
  201   192   175 1
  202   193   175 1
  203   194   175 1
  204   195   160 1
  205   196   160 1
  206   197   158 1
  207   198   158 1
  208   199   158 1
  209   200   157 1
  210   201   157 1
  211   202   157 1
  212   203   156 1
  213   204   156 1
  214   205   156 1
  215   206   155 1
  216   207   155 1
  217   208   155 1
  218   209   154 1
  219   210   154 1
  220   211   154 1
  221   212   141 1
  222   213   146 1
  223   214   145 1
  224   215   142 1
  225   216   142 1
  226   217   174 1
  227   218   173 1
  228   219   171 1
  229   220   170 1
  230   221   169 1
  231   222   140 1
  232   223   167 1
  233   224   166 1
  234   225   165 1
  235   226   163 1
  236   227   161 1
  237   228   139 1
  238   229   139 1
  239   230   153 1
  240   231   152 1
  241   232   150 1
  242   233   149 1
  243   234   148 1
  244   235   162 1
  245   65    153 1
  246   65    174 1
@<TRIPOS>SUBSTRUCTURE
      1 CLA               1 ****               0 ****  **** 
      2 LUT             138 ****               0 ****  **** 
