@<TRIPOS>MOLECULE
Cpptraj generated mol2 file.
  235   246     2     0     0
SMALL
USER_CHARGES


@<TRIPOS>ATOM
      1 CAA        78.4623   58.9713   33.5947 a2         1 CLA     -0.055900
      2 CAB        78.8162   61.9144   42.9428 c8         1 CLA     -0.148500
      3 CAC        71.6758   58.1510   42.0720 a2         1 CLA     -0.012600
      4 CAD        74.2430   56.4054   34.6041 ck         1 CLA      0.398800
      5 NA         77.5427   59.0754   37.0458 ns         1 CLA     -0.225500
      6 CBA        79.4914   58.7515   32.4730 a2         1 CLA     -0.135000
      7 CBB        78.5312   61.3118   44.1366 c0         1 CLA     -0.395200
      8 CBC        71.7341   56.6168   42.0159 a3         1 CLA     -0.037700
      9 CBD        75.7484   56.8720   34.3070 a1         1 CLA     -0.053900
     10 NB         77.4902   60.3149   39.7767 nm         1 CLA     -0.295700
     11 OBD        73.5142   55.7351   33.8425 o2         1 CLA     -0.494600
     12 CGA        79.8114   57.2947   32.1468 c4         1 CLA      0.827000
     13 CGD        76.6383   55.6765   33.8755 c4         1 CLA      0.655300
     14 ND         74.7158   58.0956   37.6264 nm         1 CLA     -0.291600
     15 CED        77.0115   53.3593   34.1306 a3         1 CLA      0.005400
     16 CHA        76.1156   57.6588   35.5416 cs         1 CLA     -0.123800
     17 CHB        79.3871   60.2195   38.1386 aa         1 CLA     -0.291900
     18 CHC        76.1959   60.5808   41.8329 aa         1 CLA     -0.090400
     19 CHD        72.9351   58.0353   39.1603 aa         1 CLA     -0.052000
     20 CMA        80.9580   58.4131   35.9988 a3         1 CLA     -0.230700
     21 CMB        80.7984   62.0231   40.4235 a3         1 CLA     -0.180800
     22 CMC        73.7731   60.2639   43.7818 a3         1 CLA     -0.134000
     23 CMD        71.5350   56.2765   36.8329 a3         1 CLA     -0.141100
     24 C1         80.7414   55.3009   33.1662 a2         1 CLA      0.023000
     25 C1A        77.3786   58.3422   35.8405 ac         1 CLA     -0.015100
     26 C1B        78.7658   60.5962   39.3504 cr         1 CLA      0.054700
     27 C1C        74.9718   59.9411   41.4546 cn         1 CLA     -0.005600
     28 C1D        73.3913   57.7061   37.9130 ap         1 CLA     -0.047300
     29 O1A        79.4843   56.6889   31.1969 o2         1 CLA     -0.610800
     30 O1D        77.5036   55.7206   33.0029 o2         1 CLA     -0.558200
     31 C2         81.4906   54.9717   34.4693 c8         1 CLA     -0.325100
     32 C2A        78.6661   58.3403   34.9840 a1         1 CLA      0.098600
     33 C2B        79.4475   61.3493   40.4565 cb         1 CLA      0.088500
     34 C2C        73.8309   59.7740   42.2969 cb         1 CLA      0.053700
     35 C2D        72.7810   57.0395   36.7927 cb         1 CLA      0.058900
     36 O2A        80.5706   56.7899   33.1793 o1         1 CLA     -0.437200
     37 O2D        76.3289   54.5628   34.6054 o1         1 CLA     -0.357600
     38 C3         82.3164   53.9535   34.5864 c5         1 CLA      0.031200
     39 C3A        79.6447   59.1901   35.8053 a1         1 CLA      0.166800
     40 C3B        78.5388   61.3665   41.5605 cb         1 CLA      0.035000
     41 C3C        72.9603   58.8601   41.5880 cb         1 CLA     -0.089900
     42 C3D        73.8583   56.9980   35.8836 cb         1 CLA     -0.035900
     43 C4         81.8104   52.6334   34.9732 a3         1 CLA     -0.053300
     44 C4A        78.8351   59.4721   37.1064 ac         1 CLA      0.001800
     45 C4B        77.3354   60.7095   41.0620 cn         1 CLA     -0.020900
     46 C4C        73.5266   58.7630   40.2584 cr         1 CLA     -0.044400
     47 C4D        74.9588   57.5936   36.3663 c6         1 CLA     -0.046000
     48 C5         83.7774   54.1234   34.2185 a2         1 CLA     -0.070400
     49 C6         84.6383   55.1720   34.8241 a2         1 CLA      0.043900
     50 C7         84.7009   54.8463   36.3037 a2         1 CLA     -0.150000
     51 C8         85.5249   55.6622   37.2788 a1         1 CLA      0.064200
     52 C9         87.1025   55.4974   37.1573 a3         1 CLA     -0.259300
     53 C10        85.1163   55.2375   38.7683 a2         1 CLA     -0.071900
     54 C11        83.6412   55.5504   39.2263 a2         1 CLA      0.014500
     55 C12        83.6708   56.4796   40.4710 a2         1 CLA     -0.112100
     56 C13        82.3097   56.7392   41.2039 a1         1 CLA      0.089200
     57 C14        81.4078   57.7431   40.4773 a3         1 CLA     -0.239100
     58 C15        82.4759   56.8755   42.7189 a2         1 CLA     -0.102200
     59 C16        82.5962   58.3512   43.1941 a2         1 CLA      0.023900
     60 C17        83.2600   58.5425   44.5727 a2         1 CLA     -0.105700
     61 C18        83.0960   59.9415   45.1724 a1         1 CLA      0.206800
     62 C19        81.6996   60.5364   45.2538 a3         1 CLA     -0.280100
     63 C20        83.8307   59.9908   46.5553 a3         1 CLA     -0.280100
     64 NC         74.7270   59.3590   40.1995 nx         1 CLA     -0.309200
     65 MG         76.0819   59.2663   38.6034 mg         1 CLA      0.895000
     66 HMD3       71.2434   56.0930   37.9170 dc         1 CLA      0.064300
     67 HMD2       70.8212   56.8632   36.3047 dc         1 CLA      0.064300
     68 HMD1       71.6955   55.3706   36.2200 dc         1 CLA      0.064300
     69 HMC3       72.7318   60.1388   44.2925 dc         1 CLA      0.052100
     70 HMC2       74.5211   59.7833   44.4628 dc         1 CLA      0.052100
     71 HMC1       74.0539   61.3186   43.6381 dc         1 CLA      0.052100
     72 HMB3       80.8768   62.7752   39.6389 dc         1 CLA      0.063600
     73 HMB2       81.0428   62.6094   41.3583 dc         1 CLA      0.063600
     74 HMB1       81.5608   61.2962   40.2813 dc         1 CLA      0.063600
     75 HMA3       80.7488   57.3566   36.3157 dc         1 CLA      0.058300
     76 HMA2       81.4219   58.3746   34.9998 dc         1 CLA      0.058300
     77 HMA1       81.6176   58.9637   36.6115 dc         1 CLA      0.058300
     78 HED3       78.0309   53.3885   34.4196 dc         1 CLA      0.079300
     79 HED2       76.4869   52.4047   34.3978 dc         1 CLA      0.079300
     80 HED1       77.0532   53.3320   33.0023 dc         1 CLA      0.079300
     81 HBC3       71.4508   56.3536   40.9991 dc         1 CLA      0.016300
     82 HBC2       72.7355   56.2020   42.2752 dc         1 CLA      0.016300
     83 HBC1       70.9495   56.4019   42.7000 dc         1 CLA      0.016300
     84 HBB2       79.0462   61.7572   45.0416 da         1 CLA      0.183000
     85 HBB1       78.0151   60.4146   44.2241 da         1 CLA      0.183000
     86 HBA2       79.0565   59.2510   31.5973 dc         1 CLA      0.029400
     87 HBA1       80.3719   59.3106   32.7894 dc         1 CLA      0.029400
     88 HAC2       71.5510   58.3526   43.1704 dc         1 CLA      0.029300
     89 HAC1       70.8877   58.6662   41.7018 dc         1 CLA      0.029300
     90 HAA2       77.6092   58.4695   33.0848 dc         1 CLA      0.028700
     91 HAA1       78.0461   59.9297   33.6415 dc         1 CLA      0.028700
     92 H203       83.6307   61.0560   46.7529 dc         1 CLA      0.065600
     93 H202       83.3070   59.2983   47.2543 dc         1 CLA      0.065600
     94 H201       84.8229   59.6930   46.4072 dc         1 CLA      0.065600
     95 H193       80.9785   59.8682   45.7148 dc         1 CLA      0.065600
     96 H192       81.7264   61.5472   45.6772 dc         1 CLA      0.065600
     97 H191       81.4328   60.6410   44.1954 dc         1 CLA      0.065600
     98 H172       82.9036   57.7982   45.2320 dc         1 CLA      0.027600
     99 H171       84.3392   58.4241   44.4869 dc         1 CLA      0.027600
    100 H162       83.2436   59.0249   42.5918 dc         1 CLA      0.002900
    101 H161       81.5535   58.6069   43.1394 dc         1 CLA      0.002900
    102 H152       81.5680   56.4573   43.1274 dc         1 CLA      0.029100
    103 H151       83.2830   56.1572   43.1287 dc         1 CLA      0.029100
    104 H143       81.8365   58.7484   40.5023 dc         1 CLA      0.063600
    105 H142       81.2802   57.4022   39.4470 dc         1 CLA      0.063600
    106 H141       80.4445   57.8714   40.8880 dc         1 CLA      0.063600
    107 H122       84.2049   55.9424   41.2381 dc         1 CLA      0.032500
    108 H121       84.2032   57.4312   40.2254 dc         1 CLA      0.032500
    109 H112       83.0119   56.0312   38.4647 dc         1 CLA      0.006600
    110 H111       83.1411   54.6165   39.5213 dc         1 CLA      0.006600
    111 H102       85.2889   54.1934   38.9102 dc         1 CLA      0.024100
    112 H101       85.6740   55.8704   39.3461 dc         1 CLA      0.024100
    113 HHD        71.9761   57.6146   39.2136 da         1 CLA      0.174300
    114 HHC        76.5316   60.7807   42.8439 da         1 CLA      0.136800
    115 HHB        80.5172   60.4529   38.1005 da         1 CLA      0.138300
    116 HBD        75.7087   57.5594   33.4943 dc         1 CLA      0.107700
    117 HAB        79.4042   62.8014   42.9306 da         1 CLA      0.155200
    118 H93        87.3455   55.7514   36.1431 dc         1 CLA      0.069500
    119 H92        87.6872   55.9743   37.9195 dc         1 CLA      0.069500
    120 H91        87.2872   54.3803   37.2408 dc         1 CLA      0.069500
    121 H8         85.3347   56.7396   37.1665 dc         1 CLA      0.029300
    122 H72        83.6891   54.8429   36.6635 dc         1 CLA      0.044400
    123 H71        85.1778   53.9286   36.3919 dc         1 CLA      0.044400
    124 H62        85.6969   55.2684   34.5192 dc         1 CLA      0.015600
    125 H61        84.0712   56.1455   34.7833 dc         1 CLA      0.015600
    126 H52        84.1660   53.1343   34.4097 dc         1 CLA      0.033200
    127 H51        83.7077   54.3096   33.1620 dc         1 CLA      0.033200
    128 H43        82.2341   52.1731   35.8586 dc         1 CLA      0.037000
    129 H42        80.7650   52.6510   35.0781 dc         1 CLA      0.037000
    130 H41        82.0417   51.9529   34.1670 dc         1 CLA      0.037000
    131 H3A        79.8844   60.1407   35.3141 dc         1 CLA      0.041100
    132 H2A        79.0088   57.2990   34.9516 dc         1 CLA      0.083100
    133 H2         81.2458   55.5766   35.3182 da         1 CLA      0.180900
    134 H18        83.7362   60.5810   44.5513 dc         1 CLA     -0.003900
    135 H13        81.8869   55.6916   41.2177 dc         1 CLA      0.019700
    136 H12        79.8415   54.6847   33.0698 dc         1 CLA      0.120400
    137 H11        81.3021   54.9020   32.3548 dc         1 CLA      0.120400
    138 C1         67.7501   60.9094   49.6838 Z1         2 LUT      0.509236
    139 C2         66.3265   60.8464   50.2714 Z2         2 LUT     -0.434695
    140 C3         65.5520   62.1680   50.4501 Z3         2 LUT      0.437453
    141 O3         65.7189   62.6924   51.7835 S1         2 LUT     -0.547129
    142 C4         65.9679   63.3456   49.5659 Z4         2 LUT     -0.468603
    143 C5         66.8596   62.9458   48.4517 Z5         2 LUT      0.279246
    144 C6         67.6995   61.8572   48.4770 Z6         2 LUT     -0.305473
    145 C7         68.3055   61.3969   47.1347 Z7         2 LUT      0.069402
    146 C8         69.0015   62.2605   46.3556 Z8         2 LUT     -0.191631
    147 C9         69.6781   61.9723   45.0680 Z9         2 LUT      0.196698
    148 C10        70.6584   62.8316   44.6479 Y1         2 LUT     -0.208611
    149 C11        71.4603   62.7786   43.4159 Y2         2 LUT      0.030784
    150 C12        72.5881   63.5042   43.0658 Y3         2 LUT     -0.220316
    151 C13        73.3680   63.3746   41.9071 Y4         2 LUT      0.215937
    152 C14        74.6093   63.9360   41.9445 Y5         2 LUT     -0.185793
    153 C15        75.5939   63.9800   40.8917 Y6         2 LUT     -0.057835
    154 C16        68.3295   59.4871   49.5241 Y7         2 LUT     -0.405615
    155 C17        68.7035   61.5786   50.7511 Y7         2 LUT     -0.405615
    156 C18        66.6147   63.9150   47.3157 Y9         2 LUT     -0.369639
    157 C19        69.3165   60.7048   44.3110 W1         2 LUT     -0.333362
    158 C20        72.6310   62.9577   40.6327 W2         2 LUT     -0.323439
    159 C21        87.5388   65.3830   34.9654 Z1         2 LUT      0.406104
    160 C22        88.2574   64.8530   33.6469 Z2         2 LUT     -0.404965
    161 C23        88.3583   65.9404   32.5683 Z3         2 LUT      0.391255
    162 O23        89.0044   65.3663   31.4171 S1         2 LUT     -0.528210
    163 C24        86.9777   66.5967   32.4152 W6         2 LUT     -0.258361
    164 C25        85.9622   66.5387   33.3197 Z5         2 LUT      0.133546
    165 C26        86.1139   65.8126   34.6515 W8         2 LUT     -0.147008
    166 C27        85.3528   66.3464   35.8895 Z7         2 LUT      0.023843
    167 C28        84.0055   65.9569   36.1290 Z8         2 LUT     -0.216987
    168 C29        83.2707   66.0712   37.3611 Z9         2 LUT      0.206524
    169 C30        81.9785   65.5500   37.4858 Y1         2 LUT     -0.215556
    170 C31        81.1324   65.5710   38.7257 Y2         2 LUT      0.025142
    171 C32        79.9705   64.9051   38.9668 Y3         2 LUT     -0.212209
    172 C33        79.2238   64.9319   40.2048 Y4         2 LUT      0.240937
    173 C34        78.0159   64.3519   40.2592 Y5         2 LUT     -0.218862
    174 C35        76.8747   64.3645   41.1043 Y6         2 LUT     -0.023547
    175 C36        88.3526   66.5447   35.5403 Y7         2 LUT     -0.393485
    176 C37        87.5804   64.1786   35.9892 Y7         2 LUT     -0.393485
    177 C38        84.6780   67.2477   33.0269 Y9         2 LUT     -0.387526
    178 C39        83.9183   66.7818   38.5621 W1         2 LUT     -0.322618
    179 C40        79.7967   65.5655   41.4208 W2         2 LUT     -0.358472
    180 H403       79.6989   66.6780   41.3877 R7         2 LUT      0.097720
    181 H402       79.4618   65.1962   42.3868 R7         2 LUT      0.097720
    182 H401       80.8341   65.3255   41.3678 R7         2 LUT      0.097720
    183 H393       84.8971   67.2827   38.3923 R4         2 LUT      0.082505
    184 H392       83.2902   67.5456   39.1240 R4         2 LUT      0.082505
    185 H391       84.3024   66.0114   39.2530 R4         2 LUT      0.082505
    186 H383       84.5417   67.5068   31.9297 R1         2 LUT      0.104030
    187 H382       83.8385   66.6865   33.4078 R1         2 LUT      0.104030
    188 H381       84.8187   68.1564   33.6436 R1         2 LUT      0.104030
    189 H373       87.1230   64.3665   36.9556 T4         2 LUT      0.089537
    190 H372       87.1753   63.2896   35.5629 T4         2 LUT      0.089537
    191 H371       88.6530   63.9923   36.2357 T4         2 LUT      0.089537
    192 H363       88.0079   66.8687   36.5178 T4         2 LUT      0.089537
    193 H362       89.4511   66.3789   35.7777 T4         2 LUT      0.089537
    194 H361       88.3742   67.3776   34.8918 T4         2 LUT      0.089537
    195 H222       89.3121   64.4971   33.8639 U2         2 LUT      0.127376
    196 H221       87.6460   63.9877   33.3645 U2         2 LUT      0.127376
    197 H203       72.0014   62.0756   40.7605 R7         2 LUT      0.087068
    198 H202       71.8816   63.7326   40.3210 R7         2 LUT      0.087068
    199 H201       73.2288   62.8005   39.7571 R7         2 LUT      0.087068
    200 H193       70.1933   60.4068   43.6882 R4         2 LUT      0.089716
    201 H192       69.1888   59.7962   44.8756 R4         2 LUT      0.089716
    202 H191       68.4789   60.7921   43.5881 R4         2 LUT      0.089716
    203 H183       67.5029   64.6592   47.2841 R1         2 LUT      0.094572
    204 H182       66.5335   63.3578   46.3873 R1         2 LUT      0.094572
    205 H181       65.7322   64.6003   47.4238 R1         2 LUT      0.094572
    206 H173       69.8196   61.6058   50.4459 T4         2 LUT      0.093752
    207 H172       68.4540   62.6450   50.8291 T4         2 LUT      0.093752
    208 H171       68.7023   61.1670   51.7170 T4         2 LUT      0.093752
    209 H163       69.4261   59.4334   49.3082 T4         2 LUT      0.093752
    210 H162       68.3465   58.8622   50.3905 T4         2 LUT      0.093752
    211 H161       67.6633   58.9011   48.8079 T4         2 LUT      0.093752
    212 HO3        65.3116   62.0787   52.4092 Q1         2 LUT      0.300121
    213 H8         69.1413   63.2401   46.6296 U7         2 LUT      0.080784
    214 H7         68.2431   60.2564   46.9579 U6         2 LUT      0.042190
    215 H42        65.0122   63.8057   49.3234 U5         2 LUT      0.145166
    216 H41        66.6189   64.0074   50.1193 U5         2 LUT      0.145166
    217 H35        77.0369   64.7670   42.0624 T3         2 LUT      0.077919
    218 H34        77.8394   63.7779   39.3402 T2         2 LUT      0.073626
    219 H32        79.5685   64.3789   38.1361 T1         2 LUT      0.092510
    220 H31        81.6982   66.1514   39.4957 U9         2 LUT      0.070048
    221 H30        81.6156   65.0432   36.6056 U8         2 LUT      0.085442
    222 H3         64.4667   62.0451   50.3119 U3         2 LUT     -0.031596
    223 H28        83.5211   65.4274   35.2772 U7         2 LUT      0.084728
    224 H27        85.9307   66.8871   36.5786 U6         2 LUT      0.087291
    225 H26        85.6469   64.8085   34.5162 Q6         2 LUT      0.075325
    226 H24        86.8802   67.2291   31.4979 Q5         2 LUT      0.094482
    227 H23        88.9153   66.8094   32.9467 U3         2 LUT     -0.024869
    228 H22        65.7815   60.1977   49.5451 U2         2 LUT      0.127376
    229 H21        66.3526   60.3754   51.2280 U2         2 LUT      0.127376
    230 H15        75.4536   63.5487   39.9174 T3         2 LUT      0.093200
    231 H14        74.9177   64.3915   42.8535 T2         2 LUT      0.068865
    232 H12        72.9541   64.0403   43.8816 T1         2 LUT      0.095507
    233 H11        71.0053   62.2311   42.6649 U9         2 LUT      0.068930
    234 H10        70.8162   63.6976   45.3383 U8         2 LUT      0.083911
    235 H1         88.3445   64.8145   30.9330 Q1         2 LUT      0.297311
@<TRIPOS>BOND
    1     6     1 1
    2     7     2 1
    3     8     3 1
    4     9     4 1
    5    11     4 1
    6    12     6 1
    7    13     9 1
    8    16     9 1
    9    25     5 1
   10    25    16 1
   11    26    10 1
   12    26    17 1
   13    27    18 1
   14    28    14 1
   15    28    19 1
   16    29    12 1
   17    30    13 1
   18    31    24 1
   19    32     1 1
   20    32    25 1
   21    33    21 1
   22    33    26 1
   23    34    22 1
   24    34    27 1
   25    35    23 1
   26    35    28 1
   27    36    12 1
   28    36    24 1
   29    37    13 1
   30    37    15 1
   31    38    31 1
   32    39    20 1
   33    39    32 1
   34    40     2 1
   35    40    33 1
   36    41     3 1
   37    41    34 1
   38    42     4 1
   39    42    35 1
   40    43    38 1
   41    44     5 1
   42    44    17 1
   43    44    39 1
   44    45    10 1
   45    45    18 1
   46    45    40 1
   47    46    19 1
   48    46    41 1
   49    47    14 1
   50    47    16 1
   51    47    42 1
   52    48    38 1
   53    49    48 1
   54    50    49 1
   55    51    50 1
   56    52    51 1
   57    53    51 1
   58    54    53 1
   59    55    54 1
   60    56    55 1
   61    57    56 1
   62    58    56 1
   63    59    58 1
   64    60    59 1
   65    61    60 1
   66    62    61 1
   67    63    61 1
   68    64    27 1
   69    64    46 1
   70    65     5 1
   71    65    10 1
   72    65    64 1
   73    65    14 1
   74    66    23 1
   75    67    23 1
   76    68    23 1
   77    69    22 1
   78    70    22 1
   79    71    22 1
   80    72    21 1
   81    73    21 1
   82    74    21 1
   83    75    20 1
   84    76    20 1
   85    77    20 1
   86    78    15 1
   87    79    15 1
   88    80    15 1
   89    81     8 1
   90    82     8 1
   91    83     8 1
   92    84     7 1
   93    85     7 1
   94    86     6 1
   95    87     6 1
   96    88     3 1
   97    89     3 1
   98    90     1 1
   99    91     1 1
  100    92    63 1
  101    93    63 1
  102    94    63 1
  103    95    62 1
  104    96    62 1
  105    97    62 1
  106    98    60 1
  107    99    60 1
  108   100    59 1
  109   101    59 1
  110   102    58 1
  111   103    58 1
  112   104    57 1
  113   105    57 1
  114   106    57 1
  115   107    55 1
  116   108    55 1
  117   109    54 1
  118   110    54 1
  119   111    53 1
  120   112    53 1
  121   113    19 1
  122   114    18 1
  123   115    17 1
  124   116     9 1
  125   117     2 1
  126   118    52 1
  127   119    52 1
  128   120    52 1
  129   121    51 1
  130   122    50 1
  131   123    50 1
  132   124    49 1
  133   125    49 1
  134   126    48 1
  135   127    48 1
  136   128    43 1
  137   129    43 1
  138   130    43 1
  139   131    39 1
  140   132    32 1
  141   133    31 1
  142   134    61 1
  143   135    56 1
  144   136    24 1
  145   137    24 1
  146   139   138 1
  147   140   139 1
  148   141   140 1
  149   142   140 1
  150   143   142 1
  151   144   138 1
  152   144   143 1
  153   145   144 1
  154   146   145 1
  155   147   146 1
  156   148   147 1
  157   149   148 1
  158   150   149 1
  159   151   150 1
  160   152   151 1
  161   153   152 1
  162   154   138 1
  163   155   138 1
  164   156   143 1
  165   157   147 1
  166   158   151 1
  167   160   159 1
  168   161   160 1
  169   162   161 1
  170   163   161 1
  171   164   163 1
  172   165   159 1
  173   165   164 1
  174   166   165 1
  175   167   166 1
  176   168   167 1
  177   169   168 1
  178   170   169 1
  179   171   170 1
  180   172   171 1
  181   173   172 1
  182   174   153 1
  183   174   173 1
  184   175   159 1
  185   176   159 1
  186   177   164 1
  187   178   168 1
  188   179   172 1
  189   180   179 1
  190   181   179 1
  191   182   179 1
  192   183   178 1
  193   184   178 1
  194   185   178 1
  195   186   177 1
  196   187   177 1
  197   188   177 1
  198   189   176 1
  199   190   176 1
  200   191   176 1
  201   192   175 1
  202   193   175 1
  203   194   175 1
  204   195   160 1
  205   196   160 1
  206   197   158 1
  207   198   158 1
  208   199   158 1
  209   200   157 1
  210   201   157 1
  211   202   157 1
  212   203   156 1
  213   204   156 1
  214   205   156 1
  215   206   155 1
  216   207   155 1
  217   208   155 1
  218   209   154 1
  219   210   154 1
  220   211   154 1
  221   212   141 1
  222   213   146 1
  223   214   145 1
  224   215   142 1
  225   216   142 1
  226   217   174 1
  227   218   173 1
  228   219   171 1
  229   220   170 1
  230   221   169 1
  231   222   140 1
  232   223   167 1
  233   224   166 1
  234   225   165 1
  235   226   163 1
  236   227   161 1
  237   228   139 1
  238   229   139 1
  239   230   153 1
  240   231   152 1
  241   232   150 1
  242   233   149 1
  243   234   148 1
  244   235   162 1
  245   65    153 1
  246   65    174 1
@<TRIPOS>SUBSTRUCTURE
      1 CLA               1 ****               0 ****  **** 
      2 LUT             138 ****               0 ****  **** 
