@<TRIPOS>MOLECULE
Cpptraj generated mol2 file.
  235   246     2     0     0
SMALL
USER_CHARGES


@<TRIPOS>ATOM
      1 CAA        79.2201   58.8191   33.3836 a2         1 CLA     -0.055900
      2 CAB        79.6370   62.1622   42.5261 c8         1 CLA     -0.148500
      3 CAC        72.6869   57.9577   42.1098 a2         1 CLA     -0.012600
      4 CAD        74.7740   56.4070   34.4343 ck         1 CLA      0.398800
      5 NA         78.2879   58.9859   36.8202 ns         1 CLA     -0.225500
      6 CBA        80.3221   58.4886   32.3528 a2         1 CLA     -0.135000
      7 CBB        78.7720   62.6696   43.4193 c0         1 CLA     -0.395200
      8 CBC        72.9542   56.4439   41.9351 a3         1 CLA     -0.037700
      9 CBD        76.2912   56.8567   34.1532 a1         1 CLA     -0.053900
     10 NB         78.2346   60.3604   39.5214 nm         1 CLA     -0.295700
     11 OBD        74.1165   55.6636   33.7106 o2         1 CLA     -0.494600
     12 CGA        80.5532   56.9970   31.9677 c4         1 CLA      0.827000
     13 CGD        77.1521   55.6528   33.7337 c4         1 CLA      0.655300
     14 ND         75.4401   58.2448   37.3718 nm         1 CLA     -0.291600
     15 CED        77.6585   53.4143   34.2057 a3         1 CLA      0.005400
     16 CHA        76.7511   57.6846   35.3234 cs         1 CLA     -0.123800
     17 CHB        80.1035   60.1886   37.8646 aa         1 CLA     -0.291900
     18 CHC        76.9729   60.6022   41.5391 aa         1 CLA     -0.090400
     19 CHD        73.6254   58.0758   39.0826 aa         1 CLA     -0.052000
     20 CMA        81.3224   57.5835   36.2134 a3         1 CLA     -0.230700
     21 CMB        81.6008   61.9226   40.1323 a3         1 CLA     -0.180800
     22 CMC        74.9580   59.5824   43.7226 a3         1 CLA     -0.134000
     23 CMD        72.2315   56.4308   36.6991 a3         1 CLA     -0.141100
     24 C1         81.1334   54.7611   32.6587 a2         1 CLA      0.023000
     25 C1A        77.9964   58.2952   35.6428 ac         1 CLA     -0.015100
     26 C1B        79.5448   60.6192   39.0890 cr         1 CLA      0.054700
     27 C1C        75.8049   59.9119   41.2911 cn         1 CLA     -0.005600
     28 C1D        74.1646   57.8193   37.7675 ap         1 CLA     -0.047300
     29 O1A        80.3100   56.6113   30.8097 o2         1 CLA     -0.610800
     30 O1D        77.8642   55.6357   32.7080 o2         1 CLA     -0.558200
     31 C2         81.4729   54.2481   33.9912 c8         1 CLA     -0.325100
     32 C2A        79.2687   58.1162   34.7968 a1         1 CLA      0.098600
     33 C2B        80.1828   61.4108   40.1668 cb         1 CLA      0.088500
     34 C2C        74.8087   59.4346   42.2514 cb         1 CLA      0.053700
     35 C2D        73.5440   57.0994   36.6987 cb         1 CLA      0.058900
     36 O2A        81.1231   56.2072   32.9106 o1         1 CLA     -0.437200
     37 O2D        77.0398   54.6292   34.6451 o1         1 CLA     -0.357600
     38 C3         82.4122   53.2797   34.1639 c5         1 CLA      0.031200
     39 C3A        80.4154   58.6963   35.7008 a1         1 CLA      0.166800
     40 C3B        79.2870   61.5061   41.2522 cb         1 CLA      0.035000
     41 C3C        73.8777   58.7054   41.4880 cb         1 CLA     -0.089900
     42 C3D        74.4735   56.9645   35.7027 cb         1 CLA     -0.035900
     43 C4         82.0584   51.8879   34.5179 a3         1 CLA     -0.053300
     44 C4A        79.5978   59.3020   36.8756 ac         1 CLA      0.001800
     45 C4B        78.0623   60.8324   40.8026 cn         1 CLA     -0.020900
     46 C4C        74.3298   58.7262   40.1188 cr         1 CLA     -0.044400
     47 C4D        75.6474   57.6875   36.1961 c6         1 CLA     -0.046000
     48 C5         83.8002   53.6286   33.7848 a2         1 CLA     -0.070400
     49 C6         84.4845   54.8875   34.3948 a2         1 CLA      0.043900
     50 C7         84.5586   54.9025   35.9599 a2         1 CLA     -0.150000
     51 C8         85.2008   56.2043   36.6616 a1         1 CLA      0.064200
     52 C9         86.7269   56.4408   36.1978 a3         1 CLA     -0.259300
     53 C10        85.2090   55.9577   38.1889 a2         1 CLA     -0.071900
     54 C11        83.8501   56.0661   38.9104 a2         1 CLA      0.014500
     55 C12        84.0660   56.1736   40.4757 a2         1 CLA     -0.112100
     56 C13        82.6470   56.1386   41.1728 a1         1 CLA      0.089200
     57 C14        81.9385   57.5129   41.1328 a3         1 CLA     -0.239100
     58 C15        82.8968   55.6216   42.6083 a2         1 CLA     -0.102200
     59 C16        83.5251   56.6647   43.5531 a2         1 CLA      0.023900
     60 C17        83.8731   56.1068   44.9638 a2         1 CLA     -0.105700
     61 C18        84.2855   57.2222   45.9639 a1         1 CLA      0.206800
     62 C19        84.1094   56.6403   47.4994 a3         1 CLA     -0.280100
     63 C20        85.7189   57.8264   45.7622 a3         1 CLA     -0.280100
     64 NC         75.5022   59.4299   40.0703 nx         1 CLA     -0.309200
     65 MG         76.7665   59.4604   38.3754 mg         1 CLA      0.895000
     66 HMD3       71.5209   57.1901   36.5815 dc         1 CLA      0.064300
     67 HMD2       72.0253   55.7985   35.8158 dc         1 CLA      0.064300
     68 HMD1       72.1168   55.7514   37.5149 dc         1 CLA      0.064300
     69 HMC3       76.0431   59.6174   43.9108 dc         1 CLA      0.052100
     70 HMC2       74.6343   60.6003   43.9813 dc         1 CLA      0.052100
     71 HMC1       74.4408   58.8493   44.3044 dc         1 CLA      0.052100
     72 HMB3       81.8416   62.0972   39.0797 dc         1 CLA      0.063600
     73 HMB2       81.6693   62.8612   40.6814 dc         1 CLA      0.063600
     74 HMB1       82.2335   61.1776   40.6288 dc         1 CLA      0.063600
     75 HMA3       81.9729   57.9742   36.9916 dc         1 CLA      0.058300
     76 HMA2       80.8269   56.7553   36.8035 dc         1 CLA      0.058300
     77 HMA1       81.8817   57.1527   35.4032 dc         1 CLA      0.058300
     78 HED3       78.7502   53.5497   34.2455 dc         1 CLA      0.079300
     79 HED2       77.2649   52.5772   34.7303 dc         1 CLA      0.079300
     80 HED1       77.4907   53.0132   33.2409 dc         1 CLA      0.079300
     81 HBC3       73.0220   56.2503   40.9010 dc         1 CLA      0.016300
     82 HBC2       73.8747   56.1104   42.3301 dc         1 CLA      0.016300
     83 HBC1       72.1859   55.8604   42.2980 dc         1 CLA      0.016300
     84 HBB2       79.0701   62.9977   44.4177 da         1 CLA      0.183000
     85 HBB1       77.7137   62.7913   43.1389 da         1 CLA      0.183000
     86 HBA2       80.1880   59.0723   31.3848 dc         1 CLA      0.029400
     87 HBA1       81.2373   58.7041   32.8217 dc         1 CLA      0.029400
     88 HAC2       72.4980   58.2731   43.1117 dc         1 CLA      0.029300
     89 HAC1       71.7959   58.1455   41.5041 dc         1 CLA      0.029300
     90 HAA2       78.3131   58.5428   32.8433 dc         1 CLA      0.028700
     91 HAA1       79.1794   59.8345   33.6530 dc         1 CLA      0.028700
     92 H203       85.7605   58.2758   44.7647 dc         1 CLA      0.065600
     93 H202       85.8491   58.6704   46.4563 dc         1 CLA      0.065600
     94 H201       86.5362   57.1440   45.9323 dc         1 CLA      0.065600
     95 H193       83.1201   56.9431   47.8669 dc         1 CLA      0.065600
     96 H192       84.3664   55.5964   47.5670 dc         1 CLA      0.065600
     97 H191       84.8535   57.0892   48.2109 dc         1 CLA      0.065600
     98 H172       83.0917   55.5030   45.4529 dc         1 CLA      0.027600
     99 H171       84.7344   55.4504   44.7984 dc         1 CLA      0.027600
    100 H162       84.2822   57.2398   43.0872 dc         1 CLA      0.002900
    101 H161       82.7415   57.3900   43.7726 dc         1 CLA      0.002900
    102 H152       81.9438   55.5261   43.0929 dc         1 CLA      0.029100
    103 H151       83.5106   54.6490   42.4870 dc         1 CLA      0.029100
    104 H143       82.5762   58.3111   41.5954 dc         1 CLA      0.063600
    105 H142       81.6695   57.8622   40.1590 dc         1 CLA      0.063600
    106 H141       80.9695   57.3647   41.7056 dc         1 CLA      0.063600
    107 H122       84.6894   55.2966   40.6859 dc         1 CLA      0.032500
    108 H121       84.6415   57.0511   40.5688 dc         1 CLA      0.032500
    109 H112       83.2844   56.8742   38.4498 dc         1 CLA      0.006600
    110 H111       83.3419   55.0882   38.6616 dc         1 CLA      0.006600
    111 H102       85.6324   54.9819   38.4143 dc         1 CLA      0.024100
    112 H101       85.7899   56.6321   38.8022 dc         1 CLA      0.024100
    113 HHD        72.7568   57.5674   39.3933 da         1 CLA      0.174300
    114 HHC        77.0945   60.8229   42.5721 da         1 CLA      0.136800
    115 HHB        81.1798   60.4707   37.7161 da         1 CLA      0.138300
    116 HBD        76.2923   57.5079   33.2587 dc         1 CLA      0.107700
    117 HAB        80.6430   62.2191   42.8917 da         1 CLA      0.155200
    118 H93        86.7449   56.5528   35.1716 dc         1 CLA      0.069500
    119 H92        87.0682   57.3808   36.6114 dc         1 CLA      0.069500
    120 H91        87.4658   55.6607   36.5033 dc         1 CLA      0.069500
    121 H8         84.5376   57.0261   36.4638 dc         1 CLA      0.029300
    122 H72        83.4842   54.7145   36.2648 dc         1 CLA      0.044400
    123 H71        85.0876   54.0067   36.2379 dc         1 CLA      0.044400
    124 H62        85.4952   54.9665   33.9804 dc         1 CLA      0.015600
    125 H61        83.8098   55.7111   34.0773 dc         1 CLA      0.015600
    126 H52        84.4956   52.8035   34.0267 dc         1 CLA      0.033200
    127 H51        83.9100   53.6301   32.6679 dc         1 CLA      0.033200
    128 H43        82.5721   51.1549   33.8160 dc         1 CLA      0.037000
    129 H42        82.4469   51.8273   35.5342 dc         1 CLA      0.037000
    130 H41        80.9835   51.8477   34.6789 dc         1 CLA      0.037000
    131 H3A        81.0970   59.4438   35.3390 dc         1 CLA      0.041100
    132 H2A        79.3797   57.0497   34.7130 dc         1 CLA      0.083100
    133 H2         81.2669   54.9494   34.8033 da         1 CLA      0.180900
    134 H18        83.5201   57.9496   45.8516 dc         1 CLA     -0.003900
    135 H13        81.9642   55.4233   40.6727 dc         1 CLA      0.019700
    136 H12        80.0948   54.4171   32.5194 dc         1 CLA      0.120400
    137 H11        81.6908   54.3538   31.8633 dc         1 CLA      0.120400
    138 C1         69.1651   60.9553   49.4263 Z1         2 LUT      0.509236
    139 C2         67.7398   60.9102   50.0932 Z2         2 LUT     -0.434695
    140 C3         66.9500   62.2329   50.1862 Z3         2 LUT      0.437453
    141 O3         66.7316   62.5489   51.5720 S1         2 LUT     -0.547129
    142 C4         67.5811   63.4269   49.4958 Z4         2 LUT     -0.468603
    143 C5         68.3174   62.9637   48.2318 Z5         2 LUT      0.279246
    144 C6         69.1573   61.9210   48.2139 Z6         2 LUT     -0.305473
    145 C7         69.4069   61.3018   46.9144 Z7         2 LUT      0.069402
    146 C8         70.4195   61.8678   46.1937 Z8         2 LUT     -0.191631
    147 C9         70.7436   61.5247   44.7640 Z9         2 LUT      0.196698
    148 C10        71.8818   62.0417   44.1786 Y1         2 LUT     -0.208611
    149 C11        72.4295   61.9985   42.8300 Y2         2 LUT      0.030784
    150 C12        73.5565   62.6518   42.4840 Y3         2 LUT     -0.220316
    151 C13        74.3765   62.6954   41.3427 Y4         2 LUT      0.215937
    152 C14        75.4607   63.5715   41.3647 Y5         2 LUT     -0.185793
    153 C15        76.4716   63.8382   40.2961 Y6         2 LUT     -0.057835
    154 C16        69.4041   59.5110   49.0318 Y7         2 LUT     -0.405615
    155 C17        70.1251   61.3194   50.5819 Y7         2 LUT     -0.405615
    156 C18        67.5685   63.4967   46.9813 Y9         2 LUT     -0.369639
    157 C19        69.7376   60.6981   44.0424 W1         2 LUT     -0.333362
    158 C20        73.7204   62.4044   39.9668 W2         2 LUT     -0.323439
    159 C21        87.2458   65.8595   33.6929 Z1         2 LUT      0.406104
    160 C22        88.0680   65.3501   32.5025 Z2         2 LUT     -0.404965
    161 C23        88.1769   66.3637   31.3312 Z3         2 LUT      0.391255
    162 O23        88.8880   65.6458   30.2957 S1         2 LUT     -0.528210
    163 C24        86.9493   67.1969   31.1573 W6         2 LUT     -0.258361
    164 C25        85.8646   67.2707   31.9660 Z5         2 LUT      0.133546
    165 C26        85.8272   66.4470   33.2329 W8         2 LUT     -0.147008
    166 C27        85.0741   67.0544   34.3388 Z7         2 LUT      0.023843
    167 C28        84.1943   66.4095   35.1114 Z8         2 LUT     -0.216987
    168 C29        83.6102   66.7974   36.3725 Z9         2 LUT      0.206524
    169 C30        82.5907   65.9750   36.7330 Y1         2 LUT     -0.215556
    170 C31        81.7109   65.9838   37.8933 Y2         2 LUT      0.025142
    171 C32        80.7160   65.1985   38.3175 Y3         2 LUT     -0.212209
    172 C33        79.8404   65.2721   39.4669 Y4         2 LUT      0.240937
    173 C34        78.7052   64.5683   39.4935 Y5         2 LUT     -0.218862
    174 C35        77.6500   64.4980   40.4650 Y6         2 LUT     -0.023547
    175 C36        88.1507   66.8620   34.3970 Y7         2 LUT     -0.393485
    176 C37        87.1325   64.6664   34.6404 Y7         2 LUT     -0.393485
    177 C38        84.6982   68.1194   31.6038 Y9         2 LUT     -0.387526
    178 C39        84.1155   68.0430   37.1379 W1         2 LUT     -0.322618
    179 C40        80.4772   65.7400   40.7938 W2         2 LUT     -0.358472
    180 H403       81.6107   65.6162   40.6593 R7         2 LUT      0.097720
    181 H402       80.1932   66.6975   41.1314 R7         2 LUT      0.097720
    182 H401       80.1560   65.1490   41.6480 R7         2 LUT      0.097720
    183 H393       84.0406   68.9368   36.5254 R4         2 LUT      0.082505
    184 H392       83.6346   68.1171   38.1099 R4         2 LUT      0.082505
    185 H391       85.1862   67.9582   37.3325 R4         2 LUT      0.082505
    186 H383       83.8154   67.4773   31.8491 R1         2 LUT      0.104030
    187 H382       84.6302   68.9687   32.2589 R1         2 LUT      0.104030
    188 H381       84.6255   68.4879   30.5363 R1         2 LUT      0.104030
    189 H373       86.5805   63.7512   34.2156 T4         2 LUT      0.089537
    190 H372       88.1210   64.4226   35.0744 T4         2 LUT      0.089537
    191 H371       86.5391   65.0178   35.4494 T4         2 LUT      0.089537
    192 H363       89.0667   66.4644   34.7165 T4         2 LUT      0.089537
    193 H362       88.3075   67.7288   33.7393 T4         2 LUT      0.089537
    194 H361       87.6746   67.2129   35.3515 T4         2 LUT      0.089537
    195 H222       89.0827   65.1505   32.7561 U2         2 LUT      0.127376
    196 H221       87.7929   64.4268   32.0016 U2         2 LUT      0.127376
    197 H203       74.4853   62.2857   39.1608 R7         2 LUT      0.087068
    198 H202       73.1354   61.4875   40.0368 R7         2 LUT      0.087068
    199 H201       73.0299   63.2397   39.6637 R7         2 LUT      0.087068
    200 H193       69.9462   60.5493   43.0443 R4         2 LUT      0.089716
    201 H192       69.6822   59.7205   44.5801 R4         2 LUT      0.089716
    202 H191       68.7804   61.1893   44.0180 R4         2 LUT      0.089716
    203 H183       67.8665   63.0730   46.0195 R1         2 LUT      0.094572
    204 H182       66.4860   63.4447   47.0415 R1         2 LUT      0.094572
    205 H181       67.7436   64.6013   46.8806 R1         2 LUT      0.094572
    206 H173       70.0379   60.6049   51.4410 T4         2 LUT      0.093752
    207 H172       71.1198   61.2106   50.1713 T4         2 LUT      0.093752
    208 H171       70.0269   62.3730   50.9423 T4         2 LUT      0.093752
    209 H163       69.3638   58.8124   49.8542 T4         2 LUT      0.093752
    210 H162       68.6147   59.2382   48.3644 T4         2 LUT      0.093752
    211 H161       70.3560   59.4197   48.5110 T4         2 LUT      0.093752
    212 HO3        66.0022   62.0137   51.9541 Q1         2 LUT      0.300121
    213 H8         71.0010   62.6879   46.6536 U7         2 LUT      0.080784
    214 H7         68.8372   60.4121   46.5332 U6         2 LUT      0.042190
    215 H42        66.6913   63.9758   49.1911 U5         2 LUT      0.145166
    216 H41        68.1759   64.1443   50.1331 U5         2 LUT      0.145166
    217 H35        77.6869   64.9236   41.4324 T3         2 LUT      0.077919
    218 H34        78.4992   63.9506   38.5662 T2         2 LUT      0.073626
    219 H32        80.4790   64.3649   37.6343 T1         2 LUT      0.092510
    220 H31        82.0250   66.7798   38.5491 U9         2 LUT      0.070048
    221 H30        82.3748   65.1458   36.1658 U8         2 LUT      0.085442
    222 H3         66.0692   62.1257   49.5642 U3         2 LUT     -0.031596
    223 H28        84.0271   65.4184   34.7938 U7         2 LUT      0.084728
    224 H27        85.4231   67.9874   34.6487 U6         2 LUT      0.087291
    225 H26        85.4570   65.4332   32.9400 Q6         2 LUT      0.075325
    226 H24        86.9389   67.6277   30.2402 Q5         2 LUT      0.094482
    227 H23        88.9522   67.0240   31.7401 U3         2 LUT     -0.024869
    228 H22        67.0682   60.2847   49.5565 U2         2 LUT      0.127376
    229 H21        67.9640   60.4371   51.0732 U2         2 LUT      0.127376
    230 H15        76.4184   63.3962   39.3304 T3         2 LUT      0.093200
    231 H14        75.5393   64.1859   42.2460 T2         2 LUT      0.068865
    232 H12        74.0255   63.2245   43.3483 T1         2 LUT      0.095507
    233 H11        71.9367   61.2920   42.2088 U9         2 LUT      0.068930
    234 H10        72.4834   62.6921   44.8495 U8         2 LUT      0.083911
    235 H1         88.4129   65.7730   29.4769 Q1         2 LUT      0.297311
@<TRIPOS>BOND
    1     6     1 1
    2     7     2 1
    3     8     3 1
    4     9     4 1
    5    11     4 1
    6    12     6 1
    7    13     9 1
    8    16     9 1
    9    25     5 1
   10    25    16 1
   11    26    10 1
   12    26    17 1
   13    27    18 1
   14    28    14 1
   15    28    19 1
   16    29    12 1
   17    30    13 1
   18    31    24 1
   19    32     1 1
   20    32    25 1
   21    33    21 1
   22    33    26 1
   23    34    22 1
   24    34    27 1
   25    35    23 1
   26    35    28 1
   27    36    12 1
   28    36    24 1
   29    37    13 1
   30    37    15 1
   31    38    31 1
   32    39    20 1
   33    39    32 1
   34    40     2 1
   35    40    33 1
   36    41     3 1
   37    41    34 1
   38    42     4 1
   39    42    35 1
   40    43    38 1
   41    44     5 1
   42    44    17 1
   43    44    39 1
   44    45    10 1
   45    45    18 1
   46    45    40 1
   47    46    19 1
   48    46    41 1
   49    47    14 1
   50    47    16 1
   51    47    42 1
   52    48    38 1
   53    49    48 1
   54    50    49 1
   55    51    50 1
   56    52    51 1
   57    53    51 1
   58    54    53 1
   59    55    54 1
   60    56    55 1
   61    57    56 1
   62    58    56 1
   63    59    58 1
   64    60    59 1
   65    61    60 1
   66    62    61 1
   67    63    61 1
   68    64    27 1
   69    64    46 1
   70    65     5 1
   71    65    10 1
   72    65    64 1
   73    65    14 1
   74    66    23 1
   75    67    23 1
   76    68    23 1
   77    69    22 1
   78    70    22 1
   79    71    22 1
   80    72    21 1
   81    73    21 1
   82    74    21 1
   83    75    20 1
   84    76    20 1
   85    77    20 1
   86    78    15 1
   87    79    15 1
   88    80    15 1
   89    81     8 1
   90    82     8 1
   91    83     8 1
   92    84     7 1
   93    85     7 1
   94    86     6 1
   95    87     6 1
   96    88     3 1
   97    89     3 1
   98    90     1 1
   99    91     1 1
  100    92    63 1
  101    93    63 1
  102    94    63 1
  103    95    62 1
  104    96    62 1
  105    97    62 1
  106    98    60 1
  107    99    60 1
  108   100    59 1
  109   101    59 1
  110   102    58 1
  111   103    58 1
  112   104    57 1
  113   105    57 1
  114   106    57 1
  115   107    55 1
  116   108    55 1
  117   109    54 1
  118   110    54 1
  119   111    53 1
  120   112    53 1
  121   113    19 1
  122   114    18 1
  123   115    17 1
  124   116     9 1
  125   117     2 1
  126   118    52 1
  127   119    52 1
  128   120    52 1
  129   121    51 1
  130   122    50 1
  131   123    50 1
  132   124    49 1
  133   125    49 1
  134   126    48 1
  135   127    48 1
  136   128    43 1
  137   129    43 1
  138   130    43 1
  139   131    39 1
  140   132    32 1
  141   133    31 1
  142   134    61 1
  143   135    56 1
  144   136    24 1
  145   137    24 1
  146   139   138 1
  147   140   139 1
  148   141   140 1
  149   142   140 1
  150   143   142 1
  151   144   138 1
  152   144   143 1
  153   145   144 1
  154   146   145 1
  155   147   146 1
  156   148   147 1
  157   149   148 1
  158   150   149 1
  159   151   150 1
  160   152   151 1
  161   153   152 1
  162   154   138 1
  163   155   138 1
  164   156   143 1
  165   157   147 1
  166   158   151 1
  167   160   159 1
  168   161   160 1
  169   162   161 1
  170   163   161 1
  171   164   163 1
  172   165   159 1
  173   165   164 1
  174   166   165 1
  175   167   166 1
  176   168   167 1
  177   169   168 1
  178   170   169 1
  179   171   170 1
  180   172   171 1
  181   173   172 1
  182   174   153 1
  183   174   173 1
  184   175   159 1
  185   176   159 1
  186   177   164 1
  187   178   168 1
  188   179   172 1
  189   180   179 1
  190   181   179 1
  191   182   179 1
  192   183   178 1
  193   184   178 1
  194   185   178 1
  195   186   177 1
  196   187   177 1
  197   188   177 1
  198   189   176 1
  199   190   176 1
  200   191   176 1
  201   192   175 1
  202   193   175 1
  203   194   175 1
  204   195   160 1
  205   196   160 1
  206   197   158 1
  207   198   158 1
  208   199   158 1
  209   200   157 1
  210   201   157 1
  211   202   157 1
  212   203   156 1
  213   204   156 1
  214   205   156 1
  215   206   155 1
  216   207   155 1
  217   208   155 1
  218   209   154 1
  219   210   154 1
  220   211   154 1
  221   212   141 1
  222   213   146 1
  223   214   145 1
  224   215   142 1
  225   216   142 1
  226   217   174 1
  227   218   173 1
  228   219   171 1
  229   220   170 1
  230   221   169 1
  231   222   140 1
  232   223   167 1
  233   224   166 1
  234   225   165 1
  235   226   163 1
  236   227   161 1
  237   228   139 1
  238   229   139 1
  239   230   153 1
  240   231   152 1
  241   232   150 1
  242   233   149 1
  243   234   148 1
  244   235   162 1
  245   65    153 1
  246   65    174 1
@<TRIPOS>SUBSTRUCTURE
      1 CLA               1 ****               0 ****  **** 
      2 LUT             138 ****               0 ****  **** 
