@<TRIPOS>MOLECULE
Cpptraj generated mol2 file.
  235   246     2     0     0
SMALL
USER_CHARGES


@<TRIPOS>ATOM
      1 CAA        76.5571   58.4789   32.9466 a2         1 CLA     -0.055900
      2 CAB        77.6538   61.2295   42.2134 c8         1 CLA     -0.148500
      3 CAC        70.3555   57.6751   41.8010 a2         1 CLA     -0.012600
      4 CAD        72.6119   55.5936   34.1915 ck         1 CLA      0.398800
      5 NA         75.9064   58.5575   36.2771 ns         1 CLA     -0.225500
      6 CBA        77.6697   58.5710   31.8829 a2         1 CLA     -0.135000
      7 CBB        77.2807   60.6984   43.3729 c0         1 CLA     -0.395200
      8 CBC        70.1396   56.2171   41.4018 a3         1 CLA     -0.037700
      9 CBD        74.1268   56.0713   33.8884 a1         1 CLA     -0.053900
     10 NB         76.0882   59.7370   39.0382 nm         1 CLA     -0.295700
     11 OBD        71.9814   54.8077   33.5539 o2         1 CLA     -0.494600
     12 CGA        78.3109   57.2775   31.4395 c4         1 CLA      0.827000
     13 CGD        75.0234   54.9109   33.5407 c4         1 CLA      0.655300
     14 ND         73.1606   57.7057   37.0591 nm         1 CLA     -0.291600
     15 CED        75.7188   52.7792   34.2082 a3         1 CLA      0.005400
     16 CHA        74.5713   56.9642   35.0424 cs         1 CLA     -0.123800
     17 CHB        77.8140   59.7737   37.2770 aa         1 CLA     -0.291900
     18 CHC        74.9263   59.7938   41.2391 aa         1 CLA     -0.090400
     19 CHD        71.4704   57.5063   38.7513 aa         1 CLA     -0.052000
     20 CMA        79.2631   57.8173   35.3655 a3         1 CLA     -0.230700
     21 CMB        79.4234   61.2327   39.6039 a3         1 CLA     -0.180800
     22 CMC        72.6096   59.4590   43.2994 a3         1 CLA     -0.134000
     23 CMD        70.1956   55.4920   36.4911 a3         1 CLA     -0.141100
     24 C1         79.1430   55.1739   32.0753 a2         1 CLA      0.023000
     25 C1A        75.7276   57.7681   35.1804 ac         1 CLA     -0.015100
     26 C1B        77.3964   60.0440   38.5629 cr         1 CLA      0.054700
     27 C1C        73.6576   59.2358   40.9282 cn         1 CLA     -0.005600
     28 C1D        71.9637   57.1822   37.5401 ap         1 CLA     -0.047300
     29 O1A        78.1880   56.7680   30.3014 o2         1 CLA     -0.610800
     30 O1D        75.7401   54.7903   32.5288 o2         1 CLA     -0.558200
     31 C2         79.8498   54.5644   33.3095 c8         1 CLA     -0.325100
     32 C2A        76.9611   57.7959   34.2443 a1         1 CLA      0.098600
     33 C2B        78.1016   60.6950   39.6668 cb         1 CLA      0.088500
     34 C2C        72.5503   59.0788   41.8728 cb         1 CLA      0.053700
     35 C2D        71.3515   56.3788   36.4550 cb         1 CLA      0.058900
     36 O2A        79.0087   56.6291   32.4244 o1         1 CLA     -0.437200
     37 O2D        74.9731   54.0081   34.5108 o1         1 CLA     -0.357600
     38 C3         80.4874   53.3473   33.3763 c5         1 CLA      0.031200
     39 C3A        77.9554   58.6339   35.0038 a1         1 CLA      0.166800
     40 C3B        77.3549   60.7023   40.8161 cb         1 CLA      0.035000
     41 C3C        71.5829   58.3336   41.1950 cb         1 CLA     -0.089900
     42 C3D        72.3449   56.2707   35.4627 cb         1 CLA     -0.035900
     43 C4         79.8111   52.0964   33.8228 a3         1 CLA     -0.053300
     44 C4A        77.1605   59.0826   36.2696 ac         1 CLA      0.001800
     45 C4B        76.0450   60.0965   40.4129 cn         1 CLA     -0.020900
     46 C4C        72.0707   58.1700   39.8450 cr         1 CLA     -0.044400
     47 C4D        73.4402   57.0206   35.9098 c6         1 CLA     -0.046000
     48 C5         81.9435   53.2925   33.1750 a2         1 CLA     -0.070400
     49 C6         82.7699   54.5093   33.6551 a2         1 CLA      0.043900
     50 C7         82.8224   54.5963   35.1501 a2         1 CLA     -0.150000
     51 C8         83.1948   55.9459   35.7645 a1         1 CLA      0.064200
     52 C9         84.6194   56.4190   35.3596 a3         1 CLA     -0.259300
     53 C10        83.0884   55.9427   37.3919 a2         1 CLA     -0.071900
     54 C11        81.6966   55.7769   38.0419 a2         1 CLA      0.014500
     55 C12        81.8889   56.2082   39.5330 a2         1 CLA     -0.112100
     56 C13        80.6523   56.1797   40.4818 a1         1 CLA      0.089200
     57 C14        79.4276   57.0280   40.0429 a3         1 CLA     -0.239100
     58 C15        81.0551   56.4429   42.0434 a2         1 CLA     -0.102200
     59 C16        81.0556   57.8967   42.3836 a2         1 CLA      0.023900
     60 C17        81.6534   58.1394   43.7744 a2         1 CLA     -0.105700
     61 C18        81.9411   59.5627   44.3255 a1         1 CLA      0.206800
     62 C19        83.0777   60.2515   43.4903 a3         1 CLA     -0.280100
     63 C20        80.6514   60.3666   44.4372 a3         1 CLA     -0.280100
     64 NC         73.2550   58.7358   39.6928 nx         1 CLA     -0.309200
     65 MG         74.4427   58.8057   37.9269 mg         1 CLA      0.895000
     66 HMD3       70.0537   55.1366   37.5240 dc         1 CLA      0.064300
     67 HMD2       69.2759   56.0695   36.2315 dc         1 CLA      0.064300
     68 HMD1       70.3133   54.7021   35.7757 dc         1 CLA      0.064300
     69 HMC3       72.7095   60.5559   43.5052 dc         1 CLA      0.052100
     70 HMC2       71.7197   59.2280   43.9056 dc         1 CLA      0.052100
     71 HMC1       73.5595   59.1216   43.7915 dc         1 CLA      0.052100
     72 HMB3       79.5634   61.9415   40.4789 dc         1 CLA      0.063600
     73 HMB2       80.0743   60.3764   39.7335 dc         1 CLA      0.063600
     74 HMB1       79.6251   61.6556   38.5901 dc         1 CLA      0.063600
     75 HMA3       79.8732   57.5750   34.5085 dc         1 CLA      0.058300
     76 HMA2       79.9252   58.4014   36.0876 dc         1 CLA      0.058300
     77 HMA1       78.8823   56.8785   35.8193 dc         1 CLA      0.058300
     78 HED3       75.0960   52.2469   33.4708 dc         1 CLA      0.079300
     79 HED2       76.7409   52.9796   33.9191 dc         1 CLA      0.079300
     80 HED1       75.6733   52.1808   35.0906 dc         1 CLA      0.079300
     81 HBC3       69.3750   56.1751   40.5944 dc         1 CLA      0.016300
     82 HBC2       71.0675   55.7631   41.1784 dc         1 CLA      0.016300
     83 HBC1       69.7959   55.5881   42.1942 dc         1 CLA      0.016300
     84 HBB2       77.5338   61.1790   44.3230 da         1 CLA      0.183000
     85 HBB1       76.6250   59.8507   43.4708 da         1 CLA      0.183000
     86 HBA2       77.2852   59.1147   30.9021 dc         1 CLA      0.029400
     87 HBA1       78.4897   59.2008   32.2474 dc         1 CLA      0.029400
     88 HAC2       70.5175   57.6214   42.8694 dc         1 CLA      0.029300
     89 HAC1       69.4176   58.2169   41.5506 dc         1 CLA      0.029300
     90 HAA2       75.7877   57.9308   32.4744 dc         1 CLA      0.028700
     91 HAA1       76.0824   59.4545   33.0894 dc         1 CLA      0.028700
     92 H203       80.7921   61.3962   44.8324 dc         1 CLA      0.065600
     93 H202       80.3409   60.5113   43.3863 dc         1 CLA      0.065600
     94 H201       79.7605   59.9049   44.8984 dc         1 CLA      0.065600
     95 H193       82.8220   60.3221   42.4657 dc         1 CLA      0.065600
     96 H192       83.1213   61.2494   43.9403 dc         1 CLA      0.065600
     97 H191       84.0144   59.7130   43.5477 dc         1 CLA      0.065600
     98 H172       81.0730   57.5434   44.3867 dc         1 CLA      0.027600
     99 H171       82.7173   57.8503   43.8783 dc         1 CLA      0.027600
    100 H162       81.5587   58.4260   41.5850 dc         1 CLA      0.002900
    101 H161       80.0238   58.1772   42.3402 dc         1 CLA      0.002900
    102 H152       80.2230   55.9538   42.5333 dc         1 CLA      0.029100
    103 H151       82.0564   55.9865   42.2528 dc         1 CLA      0.029100
    104 H143       78.6928   56.9156   40.8296 dc         1 CLA      0.063600
    105 H142       79.6051   58.0999   39.9395 dc         1 CLA      0.063600
    106 H141       79.0147   56.5383   39.1359 dc         1 CLA      0.063600
    107 H122       82.5725   55.4351   39.9406 dc         1 CLA      0.032500
    108 H121       82.2859   57.2185   39.6107 dc         1 CLA      0.032500
    109 H112       80.9715   56.4742   37.5674 dc         1 CLA      0.006600
    110 H111       81.4408   54.7041   37.9810 dc         1 CLA      0.006600
    111 H102       83.7677   55.1600   37.8204 dc         1 CLA      0.024100
    112 H101       83.4117   56.9032   37.7140 dc         1 CLA      0.024100
    113 HHD        70.4901   57.1215   38.9725 da         1 CLA      0.174300
    114 HHC        74.9260   60.1438   42.2457 da         1 CLA      0.136800
    115 HHB        78.9078   59.9961   37.1380 da         1 CLA      0.138300
    116 HBD        74.1019   56.6621   32.9841 dc         1 CLA      0.107700
    117 HAB        78.3002   62.1682   42.2601 da         1 CLA      0.155200
    118 H93        84.7843   56.4856   34.2452 dc         1 CLA      0.069500
    119 H92        85.0666   57.2647   35.8966 dc         1 CLA      0.069500
    120 H91        85.2766   55.5730   35.6554 dc         1 CLA      0.069500
    121 H8         82.4411   56.6309   35.4378 dc         1 CLA      0.029300
    122 H72        81.8052   54.3835   35.5172 dc         1 CLA      0.044400
    123 H71        83.3403   53.7667   35.5544 dc         1 CLA      0.044400
    124 H62        83.7898   54.4351   33.2234 dc         1 CLA      0.015600
    125 H61        82.3375   55.5074   33.3531 dc         1 CLA      0.015600
    126 H52        82.2706   52.2793   33.4089 dc         1 CLA      0.033200
    127 H51        82.0579   53.4199   32.1104 dc         1 CLA      0.033200
    128 H43        78.7101   52.1360   33.6607 dc         1 CLA      0.037000
    129 H42        80.2766   51.3034   33.1975 dc         1 CLA      0.037000
    130 H41        80.0894   51.9432   34.8539 dc         1 CLA      0.037000
    131 H3A        78.2155   59.5767   34.4875 dc         1 CLA      0.041100
    132 H2A        77.3112   56.7432   34.2131 dc         1 CLA      0.083100
    133 H2         79.9310   55.1172   34.2253 da         1 CLA      0.180900
    134 H18        82.3611   59.5596   45.2785 dc         1 CLA     -0.003900
    135 H13        80.2899   55.1410   40.5546 dc         1 CLA      0.019700
    136 H12        78.1597   54.7470   31.8040 dc         1 CLA      0.120400
    137 H11        79.8516   55.0237   31.2314 dc         1 CLA      0.120400
    138 C1         66.9470   61.3605   49.3367 Z1         2 LUT      0.509236
    139 C2         66.9787   62.6892   50.0865 Z2         2 LUT     -0.434695
    140 C3         65.6429   63.4681   50.1643 Z3         2 LUT      0.437453
    141 O3         65.9596   64.7785   50.4155 S1         2 LUT     -0.547129
    142 C4         64.9052   63.2673   48.8211 Z4         2 LUT     -0.468603
    143 C5         65.5001   62.5730   47.7247 Z5         2 LUT      0.279246
    144 C6         66.3911   61.5721   47.9212 Z6         2 LUT     -0.305473
    145 C7         67.3033   61.1745   46.7899 Z7         2 LUT      0.069402
    146 C8         68.1520   61.8994   46.0114 Z8         2 LUT     -0.191631
    147 C9         68.8298   61.2979   44.7679 Z9         2 LUT      0.196698
    148 C10        69.6711   62.0602   44.0989 Y1         2 LUT     -0.208611
    149 C11        70.2230   61.8464   42.7820 Y2         2 LUT      0.030784
    150 C12        71.3518   62.5623   42.3158 Y3         2 LUT     -0.220316
    151 C13        72.2697   62.4312   41.1928 Y4         2 LUT      0.215937
    152 C14        73.3652   63.2514   41.0506 Y5         2 LUT     -0.185793
    153 C15        74.4691   63.2339   40.1236 Y6         2 LUT     -0.057835
    154 C16        66.0177   60.3832   50.0843 Y7         2 LUT     -0.405615
    155 C17        68.3586   60.8065   49.4248 Y7         2 LUT     -0.405615
    156 C18        65.4110   63.2975   46.4543 Y9         2 LUT     -0.369639
    157 C19        68.3005   60.0601   44.0607 W1         2 LUT     -0.333362
    158 C20        71.5793   61.9481   39.9770 W2         2 LUT     -0.323439
    159 C21        85.8147   65.1365   34.2107 Z1         2 LUT      0.406104
    160 C22        86.4698   64.4537   33.0054 Z2         2 LUT     -0.404965
    161 C23        86.8650   65.3494   31.8863 Z3         2 LUT      0.391255
    162 O23        87.5678   64.6119   30.8839 S1         2 LUT     -0.528210
    163 C24        85.6786   66.2551   31.4505 W6         2 LUT     -0.258361
    164 C25        84.5445   66.2818   32.1195 Z5         2 LUT      0.133546
    165 C26        84.3954   65.5784   33.5553 W8         2 LUT     -0.147008
    166 C27        83.5701   66.2618   34.4981 Z7         2 LUT      0.023843
    167 C28        82.5558   65.6260   35.1632 Z8         2 LUT     -0.216987
    168 C29        81.8999   65.9883   36.4211 Z9         2 LUT      0.206524
    169 C30        80.8682   65.1655   36.8899 Y1         2 LUT     -0.215556
    170 C31        80.0116   65.3831   38.0160 Y2         2 LUT      0.025142
    171 C32        78.9395   64.5888   38.3498 Y3         2 LUT     -0.212209
    172 C33        77.9308   64.5726   39.4006 Y4         2 LUT      0.240937
    173 C34        76.8239   63.8245   39.3886 Y5         2 LUT     -0.218862
    174 C35        75.6792   63.9209   40.2603 Y6         2 LUT     -0.023547
    175 C36        86.8648   66.1702   34.7887 Y7         2 LUT     -0.393485
    176 C37        85.5014   64.0817   35.2990 Y7         2 LUT     -0.393485
    177 C38        83.3097   67.0983   31.6600 Y9         2 LUT     -0.387526
    178 C39        82.5411   67.1161   37.1941 W1         2 LUT     -0.322618
    179 C40        78.4063   65.2534   40.7017 W2         2 LUT     -0.358472
    180 H403       77.6324   65.4867   41.3486 R7         2 LUT      0.097720
    181 H402       79.1348   64.6021   41.2333 R7         2 LUT      0.097720
    182 H401       78.9049   66.2007   40.4971 R7         2 LUT      0.097720
    183 H393       82.9316   66.6460   38.0784 R4         2 LUT      0.082505
    184 H392       83.3346   67.6598   36.7744 R4         2 LUT      0.082505
    185 H391       81.7628   67.8326   37.5464 R4         2 LUT      0.082505
    186 H383       83.3611   67.3179   30.5636 R1         2 LUT      0.104030
    187 H382       82.4514   66.3741   31.7814 R1         2 LUT      0.104030
    188 H381       83.1312   68.0584   32.1793 R1         2 LUT      0.104030
    189 H373       84.8879   63.2607   34.9974 T4         2 LUT      0.089537
    190 H372       86.4479   63.6469   35.6701 T4         2 LUT      0.089537
    191 H371       84.9650   64.6120   36.1359 T4         2 LUT      0.089537
    192 H363       87.7720   65.6561   35.0033 T4         2 LUT      0.089537
    193 H362       87.1456   66.9017   33.9916 T4         2 LUT      0.089537
    194 H361       86.5228   66.6800   35.7291 T4         2 LUT      0.089537
    195 H222       87.3925   63.8658   33.2053 U2         2 LUT      0.127376
    196 H221       85.7817   63.6789   32.5983 U2         2 LUT      0.127376
    197 H203       70.9325   61.1114   40.0656 R7         2 LUT      0.087068
    198 H202       71.0481   62.8333   39.5239 R7         2 LUT      0.087068
    199 H201       72.2656   61.6596   39.1925 R7         2 LUT      0.087068
    200 H193       69.1559   59.4415   43.7893 R4         2 LUT      0.089716
    201 H192       67.6427   59.3929   44.5430 R4         2 LUT      0.089716
    202 H191       67.8704   60.4639   43.1699 R4         2 LUT      0.089716
    203 H183       64.4500   63.8228   46.3534 R1         2 LUT      0.094572
    204 H182       66.2110   64.0367   46.3943 R1         2 LUT      0.094572
    205 H181       65.4581   62.6792   45.6182 R1         2 LUT      0.094572
    206 H173       69.1231   61.6261   49.1053 T4         2 LUT      0.093752
    207 H172       68.6576   60.6941   50.5042 T4         2 LUT      0.093752
    208 H171       68.6929   59.9375   48.8768 T4         2 LUT      0.093752
    209 H163       66.1867   60.2063   51.1174 T4         2 LUT      0.093752
    210 H162       64.9276   60.6053   49.8990 T4         2 LUT      0.093752
    211 H161       66.0950   59.3667   49.6665 T4         2 LUT      0.093752
    212 HO3        65.3613   65.1160   51.1067 Q1         2 LUT      0.300121
    213 H8         68.3716   62.8814   46.2897 U7         2 LUT      0.080784
    214 H7         67.0583   60.1593   46.4394 U6         2 LUT      0.042190
    215 H42        63.9495   62.8776   49.1508 U5         2 LUT      0.145166
    216 H41        64.3593   64.1820   48.5096 U5         2 LUT      0.145166
    217 H35        75.7310   64.4618   41.1762 T3         2 LUT      0.077919
    218 H34        76.6968   63.2273   38.4796 T2         2 LUT      0.073626
    219 H32        78.7448   63.8330   37.5680 T1         2 LUT      0.092510
    220 H31        80.1509   66.2413   38.6722 U9         2 LUT      0.070048
    221 H30        80.4893   64.3778   36.2378 U8         2 LUT      0.085442
    222 H3         65.1533   62.9567   51.0808 U3         2 LUT     -0.031596
    223 H28        82.2217   64.7049   34.7334 U7         2 LUT      0.084728
    224 H27        84.0763   67.1517   34.8782 U6         2 LUT      0.087291
    225 H26        83.7647   64.7221   33.2399 Q6         2 LUT      0.075325
    226 H24        85.9277   66.8549   30.5181 Q5         2 LUT      0.094482
    227 H23        87.5002   66.1869   32.1478 U3         2 LUT     -0.024869
    228 H22        67.4598   62.6716   51.0861 U2         2 LUT      0.127376
    229 H21        67.7417   63.4181   49.7648 U2         2 LUT      0.127376
    230 H15        74.3602   62.5762   39.2537 T3         2 LUT      0.093200
    231 H14        73.4678   63.8652   41.9374 T2         2 LUT      0.068865
    232 H12        71.6040   63.3753   42.9142 T1         2 LUT      0.095507
    233 H11        70.0489   61.0180   42.1566 U9         2 LUT      0.068930
    234 H10        69.8947   63.0608   44.5212 U8         2 LUT      0.083911
    235 H1         87.0095   64.1850   30.2033 Q1         2 LUT      0.297311
@<TRIPOS>BOND
    1     6     1 1
    2     7     2 1
    3     8     3 1
    4     9     4 1
    5    11     4 1
    6    12     6 1
    7    13     9 1
    8    16     9 1
    9    25     5 1
   10    25    16 1
   11    26    10 1
   12    26    17 1
   13    27    18 1
   14    28    14 1
   15    28    19 1
   16    29    12 1
   17    30    13 1
   18    31    24 1
   19    32     1 1
   20    32    25 1
   21    33    21 1
   22    33    26 1
   23    34    22 1
   24    34    27 1
   25    35    23 1
   26    35    28 1
   27    36    12 1
   28    36    24 1
   29    37    13 1
   30    37    15 1
   31    38    31 1
   32    39    20 1
   33    39    32 1
   34    40     2 1
   35    40    33 1
   36    41     3 1
   37    41    34 1
   38    42     4 1
   39    42    35 1
   40    43    38 1
   41    44     5 1
   42    44    17 1
   43    44    39 1
   44    45    10 1
   45    45    18 1
   46    45    40 1
   47    46    19 1
   48    46    41 1
   49    47    14 1
   50    47    16 1
   51    47    42 1
   52    48    38 1
   53    49    48 1
   54    50    49 1
   55    51    50 1
   56    52    51 1
   57    53    51 1
   58    54    53 1
   59    55    54 1
   60    56    55 1
   61    57    56 1
   62    58    56 1
   63    59    58 1
   64    60    59 1
   65    61    60 1
   66    62    61 1
   67    63    61 1
   68    64    27 1
   69    64    46 1
   70    65     5 1
   71    65    10 1
   72    65    64 1
   73    65    14 1
   74    66    23 1
   75    67    23 1
   76    68    23 1
   77    69    22 1
   78    70    22 1
   79    71    22 1
   80    72    21 1
   81    73    21 1
   82    74    21 1
   83    75    20 1
   84    76    20 1
   85    77    20 1
   86    78    15 1
   87    79    15 1
   88    80    15 1
   89    81     8 1
   90    82     8 1
   91    83     8 1
   92    84     7 1
   93    85     7 1
   94    86     6 1
   95    87     6 1
   96    88     3 1
   97    89     3 1
   98    90     1 1
   99    91     1 1
  100    92    63 1
  101    93    63 1
  102    94    63 1
  103    95    62 1
  104    96    62 1
  105    97    62 1
  106    98    60 1
  107    99    60 1
  108   100    59 1
  109   101    59 1
  110   102    58 1
  111   103    58 1
  112   104    57 1
  113   105    57 1
  114   106    57 1
  115   107    55 1
  116   108    55 1
  117   109    54 1
  118   110    54 1
  119   111    53 1
  120   112    53 1
  121   113    19 1
  122   114    18 1
  123   115    17 1
  124   116     9 1
  125   117     2 1
  126   118    52 1
  127   119    52 1
  128   120    52 1
  129   121    51 1
  130   122    50 1
  131   123    50 1
  132   124    49 1
  133   125    49 1
  134   126    48 1
  135   127    48 1
  136   128    43 1
  137   129    43 1
  138   130    43 1
  139   131    39 1
  140   132    32 1
  141   133    31 1
  142   134    61 1
  143   135    56 1
  144   136    24 1
  145   137    24 1
  146   139   138 1
  147   140   139 1
  148   141   140 1
  149   142   140 1
  150   143   142 1
  151   144   138 1
  152   144   143 1
  153   145   144 1
  154   146   145 1
  155   147   146 1
  156   148   147 1
  157   149   148 1
  158   150   149 1
  159   151   150 1
  160   152   151 1
  161   153   152 1
  162   154   138 1
  163   155   138 1
  164   156   143 1
  165   157   147 1
  166   158   151 1
  167   160   159 1
  168   161   160 1
  169   162   161 1
  170   163   161 1
  171   164   163 1
  172   165   159 1
  173   165   164 1
  174   166   165 1
  175   167   166 1
  176   168   167 1
  177   169   168 1
  178   170   169 1
  179   171   170 1
  180   172   171 1
  181   173   172 1
  182   174   153 1
  183   174   173 1
  184   175   159 1
  185   176   159 1
  186   177   164 1
  187   178   168 1
  188   179   172 1
  189   180   179 1
  190   181   179 1
  191   182   179 1
  192   183   178 1
  193   184   178 1
  194   185   178 1
  195   186   177 1
  196   187   177 1
  197   188   177 1
  198   189   176 1
  199   190   176 1
  200   191   176 1
  201   192   175 1
  202   193   175 1
  203   194   175 1
  204   195   160 1
  205   196   160 1
  206   197   158 1
  207   198   158 1
  208   199   158 1
  209   200   157 1
  210   201   157 1
  211   202   157 1
  212   203   156 1
  213   204   156 1
  214   205   156 1
  215   206   155 1
  216   207   155 1
  217   208   155 1
  218   209   154 1
  219   210   154 1
  220   211   154 1
  221   212   141 1
  222   213   146 1
  223   214   145 1
  224   215   142 1
  225   216   142 1
  226   217   174 1
  227   218   173 1
  228   219   171 1
  229   220   170 1
  230   221   169 1
  231   222   140 1
  232   223   167 1
  233   224   166 1
  234   225   165 1
  235   226   163 1
  236   227   161 1
  237   228   139 1
  238   229   139 1
  239   230   153 1
  240   231   152 1
  241   232   150 1
  242   233   149 1
  243   234   148 1
  244   235   162 1
  245   65    153 1
  246   65    174 1
@<TRIPOS>SUBSTRUCTURE
      1 CLA               1 ****               0 ****  **** 
      2 LUT             138 ****               0 ****  **** 
