@<TRIPOS>MOLECULE
Cpptraj generated mol2 file.
  235   246     2     0     0
SMALL
USER_CHARGES


@<TRIPOS>ATOM
      1 CAA        79.2805   59.4970   33.0653 a2         1 CLA     -0.055900
      2 CAB        79.0394   62.9653   42.3352 c8         1 CLA     -0.148500
      3 CAC        72.4513   58.2839   41.7059 a2         1 CLA     -0.012600
      4 CAD        74.9453   57.1491   33.9968 ck         1 CLA      0.398800
      5 NA         78.1627   59.6248   36.5681 ns         1 CLA     -0.225500
      6 CBA        80.5100   59.2538   32.1821 a2         1 CLA     -0.135000
      7 CBB        80.1440   63.0791   43.0966 c0         1 CLA     -0.395200
      8 CBC        72.3715   56.7761   41.7575 a3         1 CLA     -0.037700
      9 CBD        76.3677   57.6199   33.7270 a1         1 CLA     -0.053900
     10 NB         78.0333   61.0194   39.2818 nm         1 CLA     -0.295700
     11 OBD        74.2583   56.5403   33.2016 o2         1 CLA     -0.494600
     12 CGA        80.8926   57.8214   31.8061 c4         1 CLA      0.827000
     13 CGD        77.2377   56.4933   33.2596 c4         1 CLA      0.655300
     14 ND         75.4468   58.7505   37.1362 nm         1 CLA     -0.291600
     15 CED        78.0184   54.2365   33.9575 a3         1 CLA      0.005400
     16 CHA        76.8154   58.3149   35.0148 cs         1 CLA     -0.123800
     17 CHB        79.8695   61.0565   37.6559 aa         1 CLA     -0.291900
     18 CHC        76.7067   61.0909   41.4306 aa         1 CLA     -0.090400
     19 CHD        73.6304   58.3090   38.7499 aa         1 CLA     -0.052000
     20 CMA        81.5648   58.9578   36.0152 a3         1 CLA     -0.230700
     21 CMB        81.2112   62.9691   39.8526 a3         1 CLA     -0.180800
     22 CMC        74.4166   60.2411   43.4271 a3         1 CLA     -0.134000
     23 CMD        72.2161   56.8898   36.4352 a3         1 CLA     -0.141100
     24 C1         81.8056   55.7766   32.6873 a2         1 CLA      0.023000
     25 C1A        78.0421   58.9219   35.3436 ac         1 CLA     -0.015100
     26 C1B        79.3222   61.3842   38.8841 cr         1 CLA      0.054700
     27 C1C        75.5652   60.3320   41.0648 cn         1 CLA     -0.005600
     28 C1D        74.2353   58.1342   37.5170 ap         1 CLA     -0.047300
     29 O1A        80.7506   57.3239   30.7086 o2         1 CLA     -0.610800
     30 O1D        77.8411   56.4055   32.1947 o2         1 CLA     -0.558200
     31 C2         82.3513   55.3432   34.0052 c8         1 CLA     -0.325100
     32 C2A        79.3756   58.8988   34.5489 a1         1 CLA      0.098600
     33 C2B        79.9087   62.2104   39.9402 cb         1 CLA      0.088500
     34 C2C        74.4996   59.9000   41.9376 cb         1 CLA      0.053700
     35 C2D        73.5918   57.5028   36.3447 cb         1 CLA      0.058900
     36 O2A        81.4812   57.1470   32.8754 o1         1 CLA     -0.437200
     37 O2D        77.2566   55.4965   34.2221 o1         1 CLA     -0.357600
     38 C3         83.5132   54.6613   34.0772 c5         1 CLA      0.031200
     39 C3A        80.3133   59.7430   35.4759 a1         1 CLA      0.166800
     40 C3B        79.0161   62.1930   41.0554 cb         1 CLA      0.035000
     41 C3C        73.6755   59.0363   41.1921 cb         1 CLA     -0.089900
     42 C3D        74.5893   57.6329   35.3569 cb         1 CLA     -0.035900
     43 C4         83.7216   53.1957   33.8987 a3         1 CLA     -0.053300
     44 C4A        79.4186   60.2133   36.6370 ac         1 CLA      0.001800
     45 C4B        77.8111   61.3855   40.6153 cn         1 CLA     -0.020900
     46 C4C        74.2251   59.0246   39.8361 cr         1 CLA     -0.044400
     47 C4D        75.7106   58.2934   35.8719 c6         1 CLA     -0.046000
     48 C5         84.8367   55.3933   34.1304 a2         1 CLA     -0.070400
     49 C6         84.8384   56.7488   34.8904 a2         1 CLA      0.043900
     50 C7         84.9892   56.5187   36.3821 a2         1 CLA     -0.150000
     51 C8         85.2477   57.7645   37.1902 a1         1 CLA      0.064200
     52 C9         86.7422   58.2350   36.9035 a3         1 CLA     -0.259300
     53 C10        85.0136   57.5546   38.6574 a2         1 CLA     -0.071900
     54 C11        85.0626   58.8423   39.5346 a2         1 CLA      0.014500
     55 C12        84.3168   58.5758   40.8895 a2         1 CLA     -0.112100
     56 C13        84.4516   59.7699   41.9654 a1         1 CLA      0.089200
     57 C14        85.8913   59.8889   42.5134 a3         1 CLA     -0.239100
     58 C15        83.4983   59.7231   43.2066 a2         1 CLA     -0.102200
     59 C16        81.9973   59.5574   42.7664 a2         1 CLA      0.023900
     60 C17        80.9198   59.6107   43.8871 a2         1 CLA     -0.105700
     61 C18        79.4754   59.5937   43.3929 a1         1 CLA      0.206800
     62 C19        78.9111   58.2630   42.8697 a3         1 CLA     -0.280100
     63 C20        78.4688   60.0549   44.5252 a3         1 CLA     -0.280100
     64 NC         75.3909   59.7848   39.8500 nx         1 CLA     -0.309200
     65 MG         76.6726   59.9523   38.1061 mg         1 CLA      0.895000
     66 HMD3       72.0832   56.2237   35.5631 dc         1 CLA      0.064300
     67 HMD2       71.9584   56.3380   37.3762 dc         1 CLA      0.064300
     68 HMD1       71.4649   57.7060   36.3387 dc         1 CLA      0.064300
     69 HMC3       75.2810   60.7685   43.8437 dc         1 CLA      0.052100
     70 HMC2       73.5541   60.8793   43.6892 dc         1 CLA      0.052100
     71 HMC1       74.5072   59.3385   44.0870 dc         1 CLA      0.052100
     72 HMB3       81.2384   63.9603   40.2862 dc         1 CLA      0.063600
     73 HMB2       81.9322   62.4096   40.4112 dc         1 CLA      0.063600
     74 HMB1       81.4793   63.0374   38.8398 dc         1 CLA      0.063600
     75 HMA3       81.3368   57.8944   36.3858 dc         1 CLA      0.058300
     76 HMA2       82.3617   58.8378   35.2157 dc         1 CLA      0.058300
     77 HMA1       81.9596   59.5379   36.8468 dc         1 CLA      0.058300
     78 HED3       78.2732   53.8386   34.9317 dc         1 CLA      0.079300
     79 HED2       77.4213   53.5861   33.3659 dc         1 CLA      0.079300
     80 HED1       79.0139   54.4854   33.4701 dc         1 CLA      0.079300
     81 HBC3       73.1545   56.5360   42.5126 dc         1 CLA      0.016300
     82 HBC2       71.4144   56.4024   42.0818 dc         1 CLA      0.016300
     83 HBC1       72.4744   56.3126   40.7448 dc         1 CLA      0.016300
     84 HBB2       80.2290   63.6135   44.0594 da         1 CLA      0.183000
     85 HBB1       81.0681   62.6130   42.7281 da         1 CLA      0.183000
     86 HBA2       80.2567   59.7435   31.2225 dc         1 CLA      0.029400
     87 HBA1       81.3432   59.7701   32.6150 dc         1 CLA      0.029400
     88 HAC2       72.2827   58.5826   42.7975 dc         1 CLA      0.029300
     89 HAC1       71.6044   58.6099   41.1349 dc         1 CLA      0.029300
     90 HAA2       78.4970   58.9530   32.4715 dc         1 CLA      0.028700
     91 HAA1       78.8819   60.5879   33.1769 dc         1 CLA      0.028700
     92 H203       78.6827   61.1383   44.7235 dc         1 CLA      0.065600
     93 H202       77.4543   59.8800   44.2177 dc         1 CLA      0.065600
     94 H201       78.7105   59.5627   45.4687 dc         1 CLA      0.065600
     95 H193       79.5721   57.7327   42.1584 dc         1 CLA      0.065600
     96 H192       78.6273   57.6324   43.7592 dc         1 CLA      0.065600
     97 H191       77.9304   58.4370   42.3930 dc         1 CLA      0.065600
     98 H172       81.0226   58.7144   44.4522 dc         1 CLA      0.027600
     99 H171       81.1952   60.4476   44.5447 dc         1 CLA      0.027600
    100 H162       81.7761   60.3680   42.0748 dc         1 CLA      0.002900
    101 H161       81.9227   58.5790   42.3654 dc         1 CLA      0.002900
    102 H152       83.7202   58.8764   43.8000 dc         1 CLA      0.029100
    103 H151       83.5668   60.6593   43.7901 dc         1 CLA      0.029100
    104 H143       86.5050   60.2591   41.6523 dc         1 CLA      0.063600
    105 H142       85.8256   60.5382   43.4141 dc         1 CLA      0.063600
    106 H141       86.1664   58.8621   42.7427 dc         1 CLA      0.063600
    107 H122       83.3144   58.3192   40.6490 dc         1 CLA      0.032500
    108 H121       84.7491   57.6485   41.4117 dc         1 CLA      0.032500
    109 H112       86.1125   59.2108   39.7156 dc         1 CLA      0.006600
    110 H111       84.5560   59.6772   39.0133 dc         1 CLA      0.006600
    111 H102       84.0249   57.0828   38.7869 dc         1 CLA      0.024100
    112 H101       85.6541   56.7892   38.9628 dc         1 CLA      0.024100
    113 HHD        72.7258   57.7896   39.0172 da         1 CLA      0.174300
    114 HHC        76.7771   61.4995   42.4464 da         1 CLA      0.136800
    115 HHB        80.9060   61.4271   37.6122 da         1 CLA      0.138300
    116 HBD        76.3177   58.4080   32.9169 dc         1 CLA      0.107700
    117 HAB        78.1547   63.4443   42.6243 da         1 CLA      0.155200
    118 H93        86.8558   59.1340   37.4950 dc         1 CLA      0.069500
    119 H92        87.4492   57.4709   37.2574 dc         1 CLA      0.069500
    120 H91        87.0218   58.3990   35.9034 dc         1 CLA      0.069500
    121 H8         84.6400   58.5959   36.9519 dc         1 CLA      0.029300
    122 H72        83.9852   56.2789   36.6637 dc         1 CLA      0.044400
    123 H71        85.7213   55.7993   36.5788 dc         1 CLA      0.044400
    124 H62        85.7828   57.2128   34.4888 dc         1 CLA      0.015600
    125 H61        84.0634   57.4316   34.5875 dc         1 CLA      0.015600
    126 H52        85.6135   54.7342   34.3959 dc         1 CLA      0.033200
    127 H51        85.0443   55.7711   33.1325 dc         1 CLA      0.033200
    128 H43        84.1700   52.8268   34.8115 dc         1 CLA      0.037000
    129 H42        82.6786   52.8356   34.0151 dc         1 CLA      0.037000
    130 H41        84.2739   52.8987   32.9800 dc         1 CLA      0.037000
    131 H3A        80.6584   60.6983   34.9587 dc         1 CLA      0.041100
    132 H2A        79.6865   57.8180   34.6428 dc         1 CLA      0.083100
    133 H2         81.8161   55.4635   34.8879 da         1 CLA      0.180900
    134 H18        79.4606   60.3014   42.5153 dc         1 CLA     -0.003900
    135 H13        84.1503   60.7038   41.5227 dc         1 CLA      0.019700
    136 H12        80.9027   55.2501   32.4283 dc         1 CLA      0.120400
    137 H11        82.4953   55.6351   31.9165 dc         1 CLA      0.120400
    138 C1         69.4583   62.2558   49.3564 Z1         2 LUT      0.509236
    139 C2         68.0883   62.2041   50.0669 Z2         2 LUT     -0.434695
    140 C3         67.1995   63.4642   49.9900 Z3         2 LUT      0.437453
    141 O3         66.6911   63.8786   51.2541 S1         2 LUT     -0.547129
    142 C4         67.9208   64.6701   49.1836 Z4         2 LUT     -0.468603
    143 C5         68.6428   64.2642   47.9387 Z5         2 LUT      0.279246
    144 C6         69.4818   63.2078   48.0552 Z6         2 LUT     -0.305473
    145 C7         70.0113   62.6108   46.8095 Z7         2 LUT      0.069402
    146 C8         70.8355   63.2197   45.9208 Z8         2 LUT     -0.191631
    147 C9         71.3103   62.8930   44.5723 Z9         2 LUT      0.196698
    148 C10        72.1965   63.7923   44.0107 Y1         2 LUT     -0.208611
    149 C11        72.9141   63.6847   42.7769 Y2         2 LUT      0.030784
    150 C12        74.0059   64.4545   42.3187 Y3         2 LUT     -0.220316
    151 C13        74.8423   64.3106   41.1545 Y4         2 LUT      0.215937
    152 C14        76.0352   65.0083   41.2379 Y5         2 LUT     -0.185793
    153 C15        77.1929   65.0948   40.3405 Y6         2 LUT     -0.057835
    154 C16        69.8399   60.7727   49.1485 Y7         2 LUT     -0.405615
    155 C17        70.4280   62.9174   50.4399 Y7         2 LUT     -0.405615
    156 C18        68.2658   65.0578   46.7012 Y9         2 LUT     -0.369639
    157 C19        70.6436   61.6263   44.0111 W1         2 LUT     -0.333362
    158 C20        74.3220   63.8399   39.8037 W2         2 LUT     -0.323439
    159 C21        88.1534   66.5522   34.2692 Z1         2 LUT      0.406104
    160 C22        88.9606   65.8994   33.0681 Z2         2 LUT     -0.404965
    161 C23        89.1738   66.8270   31.9248 Z3         2 LUT      0.391255
    162 O23        89.9243   66.2560   30.8572 S1         2 LUT     -0.528210
    163 C24        87.8518   67.6820   31.6086 W6         2 LUT     -0.258361
    164 C25        86.7709   67.7528   32.3831 Z5         2 LUT      0.133546
    165 C26        86.7192   67.0669   33.7732 W8         2 LUT     -0.147008
    166 C27        86.0532   67.8958   34.7860 Z7         2 LUT      0.023843
    167 C28        84.8801   67.6535   35.3643 Z8         2 LUT     -0.216987
    168 C29        84.4283   68.1336   36.6819 Z9         2 LUT      0.206524
    169 C30        83.2613   67.5634   37.1675 Y1         2 LUT     -0.215556
    170 C31        82.5132   67.7410   38.4043 Y2         2 LUT      0.025142
    171 C32        81.3664   67.0731   38.6985 Y3         2 LUT     -0.212209
    172 C33        80.4166   67.0528   39.8215 Y4         2 LUT      0.240937
    173 C34        79.3390   66.2438   39.7607 Y5         2 LUT     -0.218862
    174 C35        78.2724   65.9305   40.6921 Y6         2 LUT     -0.023547
    175 C36        89.1618   67.5798   34.9104 Y7         2 LUT     -0.393485
    176 C37        87.9661   65.3958   35.3401 Y7         2 LUT     -0.393485
    177 C38        85.5319   68.5238   31.9176 Y9         2 LUT     -0.387526
    178 C39        85.0925   69.3321   37.3604 W1         2 LUT     -0.322618
    179 C40        80.8112   67.7257   41.1398 W2         2 LUT     -0.358472
    180 H403       81.8567   68.0738   41.1530 R7         2 LUT      0.097720
    181 H402       80.2935   68.6723   41.2076 R7         2 LUT      0.097720
    182 H401       80.4368   67.1157   41.9343 R7         2 LUT      0.097720
    183 H393       86.1714   69.1618   37.5989 R4         2 LUT      0.082505
    184 H392       85.1191   70.1620   36.7209 R4         2 LUT      0.082505
    185 H391       84.6370   69.5907   38.3075 R4         2 LUT      0.082505
    186 H383       85.1898   69.2493   32.6770 R1         2 LUT      0.104030
    187 H382       85.8362   69.0951   31.1049 R1         2 LUT      0.104030
    188 H381       84.7130   67.9002   31.6015 R1         2 LUT      0.104030
    189 H373       87.4019   64.5692   34.9803 T4         2 LUT      0.089537
    190 H372       88.9239   65.0290   35.6123 T4         2 LUT      0.089537
    191 H371       87.4388   65.7089   36.2372 T4         2 LUT      0.089537
    192 H363       89.2441   68.4012   34.2422 T4         2 LUT      0.089537
    193 H362       88.7611   67.9381   35.8377 T4         2 LUT      0.089537
    194 H361       90.1531   67.1056   35.1267 T4         2 LUT      0.089537
    195 H222       89.9085   65.5673   33.4245 U2         2 LUT      0.127376
    196 H221       88.3549   65.0974   32.7533 U2         2 LUT      0.127376
    197 H203       73.2616   63.9893   39.6493 R7         2 LUT      0.087068
    198 H202       74.7028   64.3922   38.9524 R7         2 LUT      0.087068
    199 H201       74.4915   62.7756   39.6404 R7         2 LUT      0.087068
    200 H193       71.1297   61.3506   43.0867 R4         2 LUT      0.089716
    201 H192       70.9199   60.7692   44.5616 R4         2 LUT      0.089716
    202 H191       69.6093   61.7005   43.7889 R4         2 LUT      0.089716
    203 H183       69.1070   65.5856   46.3764 R1         2 LUT      0.094572
    204 H182       67.8250   64.3795   45.9710 R1         2 LUT      0.094572
    205 H181       67.4733   65.8164   46.8106 R1         2 LUT      0.094572
    206 H173       70.4612   62.2405   51.3277 T4         2 LUT      0.093752
    207 H172       71.3908   63.0481   49.9925 T4         2 LUT      0.093752
    208 H171       70.1069   63.8881   50.7403 T4         2 LUT      0.093752
    209 H163       69.0657   60.3225   48.4849 T4         2 LUT      0.093752
    210 H162       70.8503   60.5711   48.7747 T4         2 LUT      0.093752
    211 H161       69.8668   60.2177   50.0945 T4         2 LUT      0.093752
    212 HO3        67.2850   63.9416   51.9815 Q1         2 LUT      0.300121
    213 H8         71.2221   64.2107   46.1769 U7         2 LUT      0.080784
    214 H7         69.5786   61.6868   46.6643 U6         2 LUT      0.042190
    215 H42        67.2266   65.3528   48.8427 U5         2 LUT      0.145166
    216 H41        68.5892   65.3327   49.7723 U5         2 LUT      0.145166
    217 H35        78.1399   66.4070   41.6602 T3         2 LUT      0.077919
    218 H34        79.1684   65.8032   38.7833 T2         2 LUT      0.073626
    219 H32        81.0202   66.3872   37.8579 T1         2 LUT      0.092510
    220 H31        82.7931   68.5378   39.0734 U9         2 LUT      0.070048
    221 H30        82.8594   66.7376   36.4836 U8         2 LUT      0.085442
    222 H3         66.3655   63.1557   49.3191 U3         2 LUT     -0.031596
    223 H28        84.3024   66.8857   34.8444 U7         2 LUT      0.084728
    224 H27        86.7148   68.6371   35.0888 U6         2 LUT      0.087291
    225 H26        86.2570   66.1569   33.5721 Q6         2 LUT      0.075325
    226 H24        87.8987   68.0700   30.5689 Q5         2 LUT      0.094482
    227 H23        89.9542   67.5625   32.2287 U3         2 LUT     -0.024869
    228 H22        67.5501   61.4417   49.5245 U2         2 LUT      0.127376
    229 H21        68.1796   61.6965   51.0408 U2         2 LUT      0.127376
    230 H15        77.1865   64.6344   39.3630 T3         2 LUT      0.093200
    231 H14        76.1651   65.6229   42.0900 T2         2 LUT      0.068865
    232 H12        74.3908   65.0854   43.1702 T1         2 LUT      0.095507
    233 H11        72.5569   62.9876   42.0211 U9         2 LUT      0.068930
    234 H10        72.5992   64.5678   44.6572 U8         2 LUT      0.083911
    235 H1         89.3152   65.9610   30.1274 Q1         2 LUT      0.297311
@<TRIPOS>BOND
    1     6     1 1
    2     7     2 1
    3     8     3 1
    4     9     4 1
    5    11     4 1
    6    12     6 1
    7    13     9 1
    8    16     9 1
    9    25     5 1
   10    25    16 1
   11    26    10 1
   12    26    17 1
   13    27    18 1
   14    28    14 1
   15    28    19 1
   16    29    12 1
   17    30    13 1
   18    31    24 1
   19    32     1 1
   20    32    25 1
   21    33    21 1
   22    33    26 1
   23    34    22 1
   24    34    27 1
   25    35    23 1
   26    35    28 1
   27    36    12 1
   28    36    24 1
   29    37    13 1
   30    37    15 1
   31    38    31 1
   32    39    20 1
   33    39    32 1
   34    40     2 1
   35    40    33 1
   36    41     3 1
   37    41    34 1
   38    42     4 1
   39    42    35 1
   40    43    38 1
   41    44     5 1
   42    44    17 1
   43    44    39 1
   44    45    10 1
   45    45    18 1
   46    45    40 1
   47    46    19 1
   48    46    41 1
   49    47    14 1
   50    47    16 1
   51    47    42 1
   52    48    38 1
   53    49    48 1
   54    50    49 1
   55    51    50 1
   56    52    51 1
   57    53    51 1
   58    54    53 1
   59    55    54 1
   60    56    55 1
   61    57    56 1
   62    58    56 1
   63    59    58 1
   64    60    59 1
   65    61    60 1
   66    62    61 1
   67    63    61 1
   68    64    27 1
   69    64    46 1
   70    65     5 1
   71    65    10 1
   72    65    64 1
   73    65    14 1
   74    66    23 1
   75    67    23 1
   76    68    23 1
   77    69    22 1
   78    70    22 1
   79    71    22 1
   80    72    21 1
   81    73    21 1
   82    74    21 1
   83    75    20 1
   84    76    20 1
   85    77    20 1
   86    78    15 1
   87    79    15 1
   88    80    15 1
   89    81     8 1
   90    82     8 1
   91    83     8 1
   92    84     7 1
   93    85     7 1
   94    86     6 1
   95    87     6 1
   96    88     3 1
   97    89     3 1
   98    90     1 1
   99    91     1 1
  100    92    63 1
  101    93    63 1
  102    94    63 1
  103    95    62 1
  104    96    62 1
  105    97    62 1
  106    98    60 1
  107    99    60 1
  108   100    59 1
  109   101    59 1
  110   102    58 1
  111   103    58 1
  112   104    57 1
  113   105    57 1
  114   106    57 1
  115   107    55 1
  116   108    55 1
  117   109    54 1
  118   110    54 1
  119   111    53 1
  120   112    53 1
  121   113    19 1
  122   114    18 1
  123   115    17 1
  124   116     9 1
  125   117     2 1
  126   118    52 1
  127   119    52 1
  128   120    52 1
  129   121    51 1
  130   122    50 1
  131   123    50 1
  132   124    49 1
  133   125    49 1
  134   126    48 1
  135   127    48 1
  136   128    43 1
  137   129    43 1
  138   130    43 1
  139   131    39 1
  140   132    32 1
  141   133    31 1
  142   134    61 1
  143   135    56 1
  144   136    24 1
  145   137    24 1
  146   139   138 1
  147   140   139 1
  148   141   140 1
  149   142   140 1
  150   143   142 1
  151   144   138 1
  152   144   143 1
  153   145   144 1
  154   146   145 1
  155   147   146 1
  156   148   147 1
  157   149   148 1
  158   150   149 1
  159   151   150 1
  160   152   151 1
  161   153   152 1
  162   154   138 1
  163   155   138 1
  164   156   143 1
  165   157   147 1
  166   158   151 1
  167   160   159 1
  168   161   160 1
  169   162   161 1
  170   163   161 1
  171   164   163 1
  172   165   159 1
  173   165   164 1
  174   166   165 1
  175   167   166 1
  176   168   167 1
  177   169   168 1
  178   170   169 1
  179   171   170 1
  180   172   171 1
  181   173   172 1
  182   174   153 1
  183   174   173 1
  184   175   159 1
  185   176   159 1
  186   177   164 1
  187   178   168 1
  188   179   172 1
  189   180   179 1
  190   181   179 1
  191   182   179 1
  192   183   178 1
  193   184   178 1
  194   185   178 1
  195   186   177 1
  196   187   177 1
  197   188   177 1
  198   189   176 1
  199   190   176 1
  200   191   176 1
  201   192   175 1
  202   193   175 1
  203   194   175 1
  204   195   160 1
  205   196   160 1
  206   197   158 1
  207   198   158 1
  208   199   158 1
  209   200   157 1
  210   201   157 1
  211   202   157 1
  212   203   156 1
  213   204   156 1
  214   205   156 1
  215   206   155 1
  216   207   155 1
  217   208   155 1
  218   209   154 1
  219   210   154 1
  220   211   154 1
  221   212   141 1
  222   213   146 1
  223   214   145 1
  224   215   142 1
  225   216   142 1
  226   217   174 1
  227   218   173 1
  228   219   171 1
  229   220   170 1
  230   221   169 1
  231   222   140 1
  232   223   167 1
  233   224   166 1
  234   225   165 1
  235   226   163 1
  236   227   161 1
  237   228   139 1
  238   229   139 1
  239   230   153 1
  240   231   152 1
  241   232   150 1
  242   233   149 1
  243   234   148 1
  244   235   162 1
  245   65    153 1
  246   65    174 1
@<TRIPOS>SUBSTRUCTURE
      1 CLA               1 ****               0 ****  **** 
      2 LUT             138 ****               0 ****  **** 
