@<TRIPOS>MOLECULE
Cpptraj generated mol2 file.
  235   246     2     0     0
SMALL
USER_CHARGES


@<TRIPOS>ATOM
      1 CAA        78.0753   58.7580   35.2007 a2         1 CLA     -0.055900
      2 CAB        77.8515   62.6103   43.8853 c8         1 CLA     -0.148500
      3 CAC        70.8295   58.2955   43.3343 a2         1 CLA     -0.012600
      4 CAD        73.6800   56.1947   35.9699 ck         1 CLA      0.398800
      5 NA         76.9163   58.8393   38.5508 ns         1 CLA     -0.225500
      6 CBA        79.3050   58.8323   34.2390 a2         1 CLA     -0.135000
      7 CBB        76.8932   63.2852   44.5789 c0         1 CLA     -0.395200
      8 CBC        70.8441   56.7742   43.3180 a3         1 CLA     -0.037700
      9 CBD        75.1702   56.7410   35.7002 a1         1 CLA     -0.053900
     10 NB         76.6869   60.3713   41.1268 nm         1 CLA     -0.295700
     11 OBD        73.0075   55.4855   35.2304 o2         1 CLA     -0.494600
     12 CGA        79.6303   57.4668   33.5609 c4         1 CLA      0.827000
     13 CGD        76.0562   55.5834   35.3414 c4         1 CLA      0.655300
     14 ND         74.0055   58.1542   38.8637 nm         1 CLA     -0.291600
     15 CED        76.4162   53.1622   35.5415 a3         1 CLA      0.005400
     16 CHA        75.5396   57.4933   36.9465 cs         1 CLA     -0.123800
     17 CHB        78.6517   60.1959   39.5811 aa         1 CLA     -0.291900
     18 CHC        75.2756   60.7853   43.0204 aa         1 CLA     -0.090400
     19 CHD        72.0506   58.1328   40.3994 aa         1 CLA     -0.052000
     20 CMA        80.1560   57.6264   38.2373 a3         1 CLA     -0.230700
     21 CMB        79.8934   62.3218   41.6468 a3         1 CLA     -0.180800
     22 CMC        72.7975   60.2362   44.9449 a3         1 CLA     -0.134000
     23 CMD        70.8042   56.2153   37.9739 a3         1 CLA     -0.141100
     24 C1         80.2417   55.1733   33.9355 a2         1 CLA      0.023000
     25 C1A        76.7900   58.1294   37.3664 ac         1 CLA     -0.015100
     26 C1B        77.9905   60.7571   40.7324 cr         1 CLA      0.054700
     27 C1C        74.1034   60.0253   42.6507 cn         1 CLA     -0.005600
     28 C1D        72.6853   57.7051   39.1429 ap         1 CLA     -0.047300
     29 O1A        79.4729   57.1877   32.3852 o2         1 CLA     -0.610800
     30 O1D        76.7557   55.6216   34.2922 o2         1 CLA     -0.558200
     31 C2         81.0082   54.3005   34.9083 c8         1 CLA     -0.325100
     32 C2A        78.1848   58.0826   36.5988 a1         1 CLA      0.098600
     33 C2B        78.5520   61.6350   41.7295 cb         1 CLA      0.088500
     34 C2C        72.9924   59.7203   43.5452 cb         1 CLA      0.053700
     35 C2D        72.1835   56.8333   38.0880 cb         1 CLA      0.058900
     36 O2A        80.1689   56.5612   34.4698 o1         1 CLA     -0.437200
     37 O2D        75.8971   54.4082   36.0733 o1         1 CLA     -0.357600
     38 C3         82.3111   54.4719   35.2865 c5         1 CLA      0.031200
     39 C3A        79.1582   58.6596   37.6414 a1         1 CLA      0.166800
     40 C3B        77.6304   61.7849   42.7271 cb         1 CLA      0.035000
     41 C3C        72.1061   58.9174   42.8369 cb         1 CLA     -0.089900
     42 C3D        73.2382   56.7200   37.2043 cb         1 CLA     -0.035900
     43 C4         83.4396   54.0292   34.4107 a3         1 CLA     -0.053300
     44 C4A        78.2229   59.3190   38.6342 ac         1 CLA      0.001800
     45 C4B        76.4948   60.8846   42.3904 cn         1 CLA     -0.020900
     46 C4C        72.6283   58.8429   41.4629 cr         1 CLA     -0.044400
     47 C4D        74.3710   57.4827   37.7102 c6         1 CLA     -0.046000
     48 C5         82.6981   55.2180   36.4877 a2         1 CLA     -0.070400
     49 C6         83.4971   54.5820   37.5731 a2         1 CLA      0.043900
     50 C7         83.5402   55.3866   38.9178 a2         1 CLA     -0.150000
     51 C8         83.9433   56.9119   38.9124 a1         1 CLA      0.064200
     52 C9         85.2284   57.1403   38.1376 a3         1 CLA     -0.259300
     53 C10        84.0591   57.5400   40.2817 a2         1 CLA     -0.071900
     54 C11        82.9419   57.2119   41.2846 a2         1 CLA      0.014500
     55 C12        82.4600   58.4031   42.1466 a2         1 CLA     -0.112100
     56 C13        83.5422   59.2399   42.9083 a1         1 CLA      0.089200
     57 C14        84.5360   58.3268   43.7595 a3         1 CLA     -0.239100
     58 C15        82.8027   60.2905   43.8158 a2         1 CLA     -0.102200
     59 C16        83.8194   61.4067   44.3330 a2         1 CLA      0.023900
     60 C17        83.1781   62.1515   45.4951 a2         1 CLA     -0.105700
     61 C18        83.8463   63.4371   46.0476 a1         1 CLA      0.206800
     62 C19        82.8757   64.1053   47.0060 a3         1 CLA     -0.280100
     63 C20        85.2254   63.0472   46.8197 a3         1 CLA     -0.280100
     64 NC         73.8586   59.3805   41.4814 nx         1 CLA     -0.309200
     65 MG         75.2609   59.3700   39.9013 mg         1 CLA      0.895000
     66 HMD3       70.2248   57.0619   37.5302 dc         1 CLA      0.064300
     67 HMD2       70.9014   55.3779   37.3176 dc         1 CLA      0.064300
     68 HMD1       70.4410   55.7842   38.9299 dc         1 CLA      0.064300
     69 HMC3       73.4028   61.0972   45.0866 dc         1 CLA      0.052100
     70 HMC2       71.8115   60.4719   45.2103 dc         1 CLA      0.052100
     71 HMC1       73.0903   59.5358   45.6999 dc         1 CLA      0.052100
     72 HMB3       80.6214   61.6331   41.3825 dc         1 CLA      0.063600
     73 HMB2       79.6625   63.1168   40.9604 dc         1 CLA      0.063600
     74 HMB1       80.2604   62.8444   42.5101 dc         1 CLA      0.063600
     75 HMA3       79.5804   56.8879   38.7693 dc         1 CLA      0.058300
     76 HMA2       80.7043   57.1231   37.4208 dc         1 CLA      0.058300
     77 HMA1       80.9557   58.1021   38.8726 dc         1 CLA      0.058300
     78 HED3       75.9324   52.8475   34.6188 dc         1 CLA      0.079300
     79 HED2       77.5070   53.2140   35.4054 dc         1 CLA      0.079300
     80 HED1       76.1135   52.3438   36.2008 dc         1 CLA      0.079300
     81 HBC3       71.3952   56.3958   44.1597 dc         1 CLA      0.016300
     82 HBC2       69.8452   56.3147   43.3510 dc         1 CLA      0.016300
     83 HBC1       71.2749   56.4785   42.3894 dc         1 CLA      0.016300
     84 HBB2       77.2683   63.8570   45.4204 da         1 CLA      0.183000
     85 HBB1       75.8192   63.1542   44.3405 da         1 CLA      0.183000
     86 HBA2       78.9653   59.4024   33.4052 dc         1 CLA      0.029400
     87 HBA1       80.1266   59.2606   34.6734 dc         1 CLA      0.029400
     88 HAC2       70.6010   58.6436   44.3697 dc         1 CLA      0.029300
     89 HAC1       70.0163   58.5621   42.6492 dc         1 CLA      0.029300
     90 HAA2       77.3729   58.1105   34.6558 dc         1 CLA      0.028700
     91 HAA1       77.5820   59.7827   35.2505 dc         1 CLA      0.028700
     92 H203       85.8288   62.3935   46.0945 dc         1 CLA      0.065600
     93 H202       85.8005   63.8617   47.1918 dc         1 CLA      0.065600
     94 H201       84.8910   62.3987   47.6136 dc         1 CLA      0.065600
     95 H193       82.1452   64.6305   46.3099 dc         1 CLA      0.065600
     96 H192       82.4380   63.3840   47.7227 dc         1 CLA      0.065600
     97 H191       83.2955   64.9073   47.5145 dc         1 CLA      0.065600
     98 H172       82.1934   62.4404   45.0899 dc         1 CLA      0.027600
     99 H171       82.8412   61.4807   46.3301 dc         1 CLA      0.027600
    100 H162       84.6729   60.9131   44.6936 dc         1 CLA      0.002900
    101 H161       84.1215   61.9972   43.4754 dc         1 CLA      0.002900
    102 H152       82.0223   60.8409   43.3569 dc         1 CLA      0.029100
    103 H151       82.3646   59.7209   44.7059 dc         1 CLA      0.029100
    104 H143       83.8316   57.5807   44.2037 dc         1 CLA      0.063600
    105 H142       85.3660   57.8317   43.2382 dc         1 CLA      0.063600
    106 H141       85.0691   58.8228   44.5780 dc         1 CLA      0.063600
    107 H122       81.8063   59.0960   41.6431 dc         1 CLA      0.032500
    108 H121       81.9927   57.9267   43.0198 dc         1 CLA      0.032500
    109 H112       81.9856   56.9906   40.7558 dc         1 CLA      0.006600
    110 H111       83.1591   56.2961   41.8508 dc         1 CLA      0.006600
    111 H102       85.0059   57.3300   40.8279 dc         1 CLA      0.024100
    112 H101       84.0702   58.5837   40.2396 dc         1 CLA      0.024100
    113 HHD        71.0807   57.6953   40.5059 da         1 CLA      0.174300
    114 HHC        75.2250   61.1089   44.1107 da         1 CLA      0.136800
    115 HHB        79.7240   60.5096   39.6061 da         1 CLA      0.138300
    116 HBD        75.1601   57.4084   34.8404 dc         1 CLA      0.107700
    117 HAB        78.9015   62.9047   44.1558 da         1 CLA      0.155200
    118 H93        85.7245   58.1488   38.4724 dc         1 CLA      0.069500
    119 H92        86.0255   56.3749   38.2058 dc         1 CLA      0.069500
    120 H91        84.9355   57.0255   37.0862 dc         1 CLA      0.069500
    121 H8         83.1708   57.4954   38.3675 dc         1 CLA      0.029300
    122 H72        82.5357   55.3867   39.2887 dc         1 CLA      0.044400
    123 H71        84.1529   54.8115   39.6073 dc         1 CLA      0.044400
    124 H62        83.0155   53.6413   37.7395 dc         1 CLA      0.015600
    125 H61        84.5576   54.3891   37.1911 dc         1 CLA      0.015600
    126 H52        82.9592   56.2855   36.2595 dc         1 CLA      0.033200
    127 H51        81.6917   55.2328   36.9421 dc         1 CLA      0.033200
    128 H43        84.2162   53.5441   34.9777 dc         1 CLA      0.037000
    129 H42        83.1809   53.2786   33.7083 dc         1 CLA      0.037000
    130 H41        83.8310   55.0267   34.0119 dc         1 CLA      0.037000
    131 H3A        79.6561   59.4986   37.1630 dc         1 CLA      0.041100
    132 H2A        78.5734   57.0521   36.4404 dc         1 CLA      0.083100
    133 H2         80.5835   53.3960   35.3215 da         1 CLA      0.180900
    134 H18        84.0604   64.1343   45.2654 dc         1 CLA     -0.003900
    135 H13        84.2151   59.9139   42.2644 dc         1 CLA      0.019700
    136 H12        79.1503   54.7434   33.9541 dc         1 CLA      0.120400
    137 H11        80.6812   55.0597   32.9557 dc         1 CLA      0.120400
    138 C1         66.6438   62.0845   50.8250 Z1         2 LUT      0.509236
    139 C2         66.4341   63.3765   51.6503 Z2         2 LUT     -0.434695
    140 C3         65.1123   64.0908   51.5180 Z3         2 LUT      0.437453
    141 O3         65.3549   65.3862   52.0098 S1         2 LUT     -0.547129
    142 C4         64.5827   64.0503   50.1318 Z4         2 LUT     -0.468603
    143 C5         65.4006   63.4412   49.0581 Z5         2 LUT      0.279246
    144 C6         66.3424   62.5131   49.3797 Z6         2 LUT     -0.305473
    145 C7         67.2700   62.0480   48.3740 Z7         2 LUT      0.069402
    146 C8         68.1511   62.6805   47.6345 Z8         2 LUT     -0.191631
    147 C9         68.9903   62.1641   46.5124 Z9         2 LUT      0.196698
    148 C10        69.8191   63.0202   45.7904 Y1         2 LUT     -0.208611
    149 C11        70.5960   62.8089   44.4916 Y2         2 LUT      0.030784
    150 C12        71.6338   63.6083   44.1138 Y3         2 LUT     -0.220316
    151 C13        72.4903   63.4724   42.9340 Y4         2 LUT      0.215937
    152 C14        73.7540   64.1707   42.9215 Y5         2 LUT     -0.185793
    153 C15        74.7282   64.0697   41.8787 Y6         2 LUT     -0.057835
    154 C16        65.7115   61.0065   51.3701 Y7         2 LUT     -0.405615
    155 C17        68.1169   61.6002   51.0905 Y7         2 LUT     -0.405615
    156 C18        65.0793   63.9432   47.6940 Y9         2 LUT     -0.369639
    157 C19        68.8368   60.7414   46.0525 W1         2 LUT     -0.333362
    158 C20        72.0704   62.5821   41.8370 W2         2 LUT     -0.323439
    159 C21        86.2113   65.9657   36.0164 Z1         2 LUT      0.406104
    160 C22        86.9402   65.3229   34.7128 Z2         2 LUT     -0.404965
    161 C23        87.0482   66.2440   33.5109 Z3         2 LUT      0.391255
    162 O23        87.2195   65.3173   32.4025 S1         2 LUT     -0.528210
    163 C24        85.8480   67.1075   33.2922 W6         2 LUT     -0.258361
    164 C25        84.8445   67.2694   34.1408 Z5         2 LUT      0.133546
    165 C26        84.8183   66.4330   35.5144 W8         2 LUT     -0.147008
    166 C27        83.9054   66.9849   36.5674 Z7         2 LUT      0.023843
    167 C28        83.0054   66.1726   37.2077 Z8         2 LUT     -0.216987
    168 C29        82.0365   66.6138   38.2640 Z9         2 LUT      0.206524
    169 C30        80.8904   65.8919   38.5706 Y1         2 LUT     -0.215556
    170 C31        79.9890   66.0407   39.6912 Y2         2 LUT      0.025142
    171 C32        78.7827   65.4203   39.8563 Y3         2 LUT     -0.212209
    172 C33        77.8760   65.5551   40.9354 Y4         2 LUT      0.240937
    173 C34        76.7460   64.7877   40.8992 Y5         2 LUT     -0.218862
    174 C35        75.8652   64.7283   41.9601 Y6         2 LUT     -0.023547
    175 C36        87.1718   67.0790   36.4456 Y7         2 LUT     -0.393485
    176 C37        86.2553   64.8164   37.0995 Y7         2 LUT     -0.393485
    177 C38        83.6805   68.0813   33.7714 Y9         2 LUT     -0.387526
    178 C39        82.4520   67.8153   39.0309 W1         2 LUT     -0.322618
    179 C40        78.3910   66.1970   42.1653 W2         2 LUT     -0.358472
    180 H403       79.4441   65.9710   42.3285 R7         2 LUT      0.097720
    181 H402       78.3184   67.2632   42.0774 R7         2 LUT      0.097720
    182 H401       78.0273   65.9054   43.1396 R7         2 LUT      0.097720
    183 H393       82.1995   67.7284   40.0737 R4         2 LUT      0.082505
    184 H392       83.5329   68.0512   39.1500 R4         2 LUT      0.082505
    185 H391       82.0732   68.8091   38.7994 R4         2 LUT      0.082505
    186 H383       82.9184   67.3530   33.4674 R1         2 LUT      0.104030
    187 H382       83.2911   68.8098   34.5408 R1         2 LUT      0.104030
    188 H381       83.8235   68.4966   32.7836 R1         2 LUT      0.104030
    189 H373       87.2805   64.4534   37.3522 T4         2 LUT      0.089537
    190 H372       85.7459   65.0413   38.0106 T4         2 LUT      0.089537
    191 H371       85.8524   63.9111   36.6673 T4         2 LUT      0.089537
    192 H363       88.2208   66.7140   36.6162 T4         2 LUT      0.089537
    193 H362       87.3863   67.8817   35.6587 T4         2 LUT      0.089537
    194 H361       86.9417   67.5470   37.3860 T4         2 LUT      0.089537
    195 H222       87.9235   65.0771   35.0210 U2         2 LUT      0.127376
    196 H221       86.3226   64.4787   34.2823 U2         2 LUT      0.127376
    197 H203       72.9499   62.2462   41.2799 R7         2 LUT      0.087068
    198 H202       71.4356   61.7246   42.1031 R7         2 LUT      0.087068
    199 H201       71.6490   63.1858   41.0858 R7         2 LUT      0.087068
    200 H193       68.9208   60.0450   46.8941 R4         2 LUT      0.089716
    201 H192       67.8507   60.7064   45.5920 R4         2 LUT      0.089716
    202 H191       69.6015   60.5001   45.2923 R4         2 LUT      0.089716
    203 H183       65.2741   63.1903   46.9419 R1         2 LUT      0.094572
    204 H182       64.0044   64.2132   47.7472 R1         2 LUT      0.094572
    205 H181       65.6142   64.9106   47.5324 R1         2 LUT      0.094572
    206 H173       68.8030   62.2984   50.5796 T4         2 LUT      0.093752
    207 H172       68.3678   61.7608   52.1656 T4         2 LUT      0.093752
    208 H171       68.3417   60.5865   50.8009 T4         2 LUT      0.093752
    209 H163       65.7000   60.1843   50.6866 T4         2 LUT      0.093752
    210 H162       65.9981   60.4934   52.2812 T4         2 LUT      0.093752
    211 H161       64.7013   61.3910   51.4744 T4         2 LUT      0.093752
    212 HO3        64.4774   65.6687   52.3511 Q1         2 LUT      0.300121
    213 H8         68.3443   63.7423   47.8331 U7         2 LUT      0.080784
    214 H7         67.1032   61.0285   48.2656 U6         2 LUT      0.042190
    215 H42        63.6351   63.4491   50.1629 U5         2 LUT      0.145166
    216 H41        64.4332   65.0176   49.8165 U5         2 LUT      0.145166
    217 H35        75.9785   65.3722   42.8014 T3         2 LUT      0.077919
    218 H34        76.5445   64.1549   40.0248 T2         2 LUT      0.073626
    219 H32        78.5275   64.7405   39.1316 T1         2 LUT      0.092510
    220 H31        80.2922   66.7897   40.4123 U9         2 LUT      0.070048
    221 H30        80.7882   64.9983   37.9797 U8         2 LUT      0.085442
    222 H3         64.4249   63.4582   52.1220 U3         2 LUT     -0.031596
    223 H28        82.9475   65.1511   36.8008 U7         2 LUT      0.084728
    224 H27        84.0311   68.0555   36.7208 U6         2 LUT      0.087291
    225 H26        84.4186   65.5068   35.1594 Q6         2 LUT      0.075325
    226 H24        85.9218   67.5533   32.2272 Q5         2 LUT      0.094482
    227 H23        87.9510   66.8751   33.5766 U3         2 LUT     -0.024869
    228 H22        66.4959   63.1427   52.6795 U2         2 LUT      0.127376
    229 H21        67.3561   63.9881   51.5776 U2         2 LUT      0.127376
    230 H15        74.4704   63.5222   41.0088 T3         2 LUT      0.093200
    231 H14        73.8925   64.8345   43.7840 T2         2 LUT      0.068865
    232 H12        71.8939   64.3867   44.8137 T1         2 LUT      0.095507
    233 H11        70.4550   61.9108   43.9090 U9         2 LUT      0.068930
    234 H10        69.8689   64.0586   46.0976 U8         2 LUT      0.083911
    235 H1         87.4124   65.7236   31.5344 Q1         2 LUT      0.297311
@<TRIPOS>BOND
    1     6     1 1
    2     7     2 1
    3     8     3 1
    4     9     4 1
    5    11     4 1
    6    12     6 1
    7    13     9 1
    8    16     9 1
    9    25     5 1
   10    25    16 1
   11    26    10 1
   12    26    17 1
   13    27    18 1
   14    28    14 1
   15    28    19 1
   16    29    12 1
   17    30    13 1
   18    31    24 1
   19    32     1 1
   20    32    25 1
   21    33    21 1
   22    33    26 1
   23    34    22 1
   24    34    27 1
   25    35    23 1
   26    35    28 1
   27    36    12 1
   28    36    24 1
   29    37    13 1
   30    37    15 1
   31    38    31 1
   32    39    20 1
   33    39    32 1
   34    40     2 1
   35    40    33 1
   36    41     3 1
   37    41    34 1
   38    42     4 1
   39    42    35 1
   40    43    38 1
   41    44     5 1
   42    44    17 1
   43    44    39 1
   44    45    10 1
   45    45    18 1
   46    45    40 1
   47    46    19 1
   48    46    41 1
   49    47    14 1
   50    47    16 1
   51    47    42 1
   52    48    38 1
   53    49    48 1
   54    50    49 1
   55    51    50 1
   56    52    51 1
   57    53    51 1
   58    54    53 1
   59    55    54 1
   60    56    55 1
   61    57    56 1
   62    58    56 1
   63    59    58 1
   64    60    59 1
   65    61    60 1
   66    62    61 1
   67    63    61 1
   68    64    27 1
   69    64    46 1
   70    65     5 1
   71    65    10 1
   72    65    64 1
   73    65    14 1
   74    66    23 1
   75    67    23 1
   76    68    23 1
   77    69    22 1
   78    70    22 1
   79    71    22 1
   80    72    21 1
   81    73    21 1
   82    74    21 1
   83    75    20 1
   84    76    20 1
   85    77    20 1
   86    78    15 1
   87    79    15 1
   88    80    15 1
   89    81     8 1
   90    82     8 1
   91    83     8 1
   92    84     7 1
   93    85     7 1
   94    86     6 1
   95    87     6 1
   96    88     3 1
   97    89     3 1
   98    90     1 1
   99    91     1 1
  100    92    63 1
  101    93    63 1
  102    94    63 1
  103    95    62 1
  104    96    62 1
  105    97    62 1
  106    98    60 1
  107    99    60 1
  108   100    59 1
  109   101    59 1
  110   102    58 1
  111   103    58 1
  112   104    57 1
  113   105    57 1
  114   106    57 1
  115   107    55 1
  116   108    55 1
  117   109    54 1
  118   110    54 1
  119   111    53 1
  120   112    53 1
  121   113    19 1
  122   114    18 1
  123   115    17 1
  124   116     9 1
  125   117     2 1
  126   118    52 1
  127   119    52 1
  128   120    52 1
  129   121    51 1
  130   122    50 1
  131   123    50 1
  132   124    49 1
  133   125    49 1
  134   126    48 1
  135   127    48 1
  136   128    43 1
  137   129    43 1
  138   130    43 1
  139   131    39 1
  140   132    32 1
  141   133    31 1
  142   134    61 1
  143   135    56 1
  144   136    24 1
  145   137    24 1
  146   139   138 1
  147   140   139 1
  148   141   140 1
  149   142   140 1
  150   143   142 1
  151   144   138 1
  152   144   143 1
  153   145   144 1
  154   146   145 1
  155   147   146 1
  156   148   147 1
  157   149   148 1
  158   150   149 1
  159   151   150 1
  160   152   151 1
  161   153   152 1
  162   154   138 1
  163   155   138 1
  164   156   143 1
  165   157   147 1
  166   158   151 1
  167   160   159 1
  168   161   160 1
  169   162   161 1
  170   163   161 1
  171   164   163 1
  172   165   159 1
  173   165   164 1
  174   166   165 1
  175   167   166 1
  176   168   167 1
  177   169   168 1
  178   170   169 1
  179   171   170 1
  180   172   171 1
  181   173   172 1
  182   174   153 1
  183   174   173 1
  184   175   159 1
  185   176   159 1
  186   177   164 1
  187   178   168 1
  188   179   172 1
  189   180   179 1
  190   181   179 1
  191   182   179 1
  192   183   178 1
  193   184   178 1
  194   185   178 1
  195   186   177 1
  196   187   177 1
  197   188   177 1
  198   189   176 1
  199   190   176 1
  200   191   176 1
  201   192   175 1
  202   193   175 1
  203   194   175 1
  204   195   160 1
  205   196   160 1
  206   197   158 1
  207   198   158 1
  208   199   158 1
  209   200   157 1
  210   201   157 1
  211   202   157 1
  212   203   156 1
  213   204   156 1
  214   205   156 1
  215   206   155 1
  216   207   155 1
  217   208   155 1
  218   209   154 1
  219   210   154 1
  220   211   154 1
  221   212   141 1
  222   213   146 1
  223   214   145 1
  224   215   142 1
  225   216   142 1
  226   217   174 1
  227   218   173 1
  228   219   171 1
  229   220   170 1
  230   221   169 1
  231   222   140 1
  232   223   167 1
  233   224   166 1
  234   225   165 1
  235   226   163 1
  236   227   161 1
  237   228   139 1
  238   229   139 1
  239   230   153 1
  240   231   152 1
  241   232   150 1
  242   233   149 1
  243   234   148 1
  244   235   162 1
  245   65    153 1
  246   65    174 1
@<TRIPOS>SUBSTRUCTURE
      1 CLA               1 ****               0 ****  **** 
      2 LUT             138 ****               0 ****  **** 
