@<TRIPOS>MOLECULE
Cpptraj generated mol2 file.
  235   246     2     0     0
SMALL
USER_CHARGES


@<TRIPOS>ATOM
      1 CAA        79.9773   57.8914   34.9981 a2         1 CLA     -0.055900
      2 CAB        79.7146   61.8815   43.6548 c8         1 CLA     -0.148500
      3 CAC        73.1347   57.4681   43.3641 a2         1 CLA     -0.012600
      4 CAD        75.8560   55.0736   35.9765 ck         1 CLA      0.398800
      5 NA         78.8607   58.3057   38.1722 ns         1 CLA     -0.225500
      6 CBA        81.1549   57.6479   34.0800 a2         1 CLA     -0.135000
      7 CBB        80.8732   62.0340   44.3773 c0         1 CLA     -0.395200
      8 CBC        73.1275   55.9270   43.2889 a3         1 CLA     -0.037700
      9 CBD        77.2842   55.5959   35.7630 a1         1 CLA     -0.053900
     10 NB         78.6052   60.0414   40.6414 nm         1 CLA     -0.295700
     11 OBD        75.3340   54.1311   35.3726 o2         1 CLA     -0.494600
     12 CGA        81.7026   56.2435   33.6841 c4         1 CLA      0.827000
     13 CGD        78.3665   54.5023   35.7809 c4         1 CLA      0.655300
     14 ND         76.0242   57.3911   38.6210 nm         1 CLA     -0.291600
     15 CED        79.5406   52.8539   36.9213 a3         1 CLA      0.005400
     16 CHA        77.5956   56.5789   36.8699 cs         1 CLA     -0.123800
     17 CHB        80.5929   59.6705   39.2303 aa         1 CLA     -0.291900
     18 CHC        77.3229   60.2446   42.6797 aa         1 CLA     -0.090400
     19 CHD        74.1092   57.2892   40.2337 aa         1 CLA     -0.052000
     20 CMA        82.3056   57.3717   37.8265 a3         1 CLA     -0.230700
     21 CMB        81.9679   61.6454   41.2778 a3         1 CLA     -0.180800
     22 CMC        75.1190   59.5606   44.6698 a3         1 CLA     -0.134000
     23 CMD        72.9495   55.3920   37.9695 a3         1 CLA     -0.141100
     24 C1         82.9716   54.3587   34.5067 a2         1 CLA      0.023000
     25 C1A        78.7693   57.3733   37.1403 ac         1 CLA     -0.015100
     26 C1B        79.9114   60.2724   40.3251 cr         1 CLA      0.054700
     27 C1C        76.0832   59.5753   42.2922 cn         1 CLA     -0.005600
     28 C1D        74.7414   56.8785   39.0019 ap         1 CLA     -0.047300
     29 O1A        81.6007   55.7269   32.5575 o2         1 CLA     -0.610800
     30 O1D        79.1247   54.3612   34.8105 o2         1 CLA     -0.558200
     31 C2         83.5280   53.7458   35.7041 c8         1 CLA     -0.325100
     32 C2A        80.1133   57.2943   36.3741 a1         1 CLA      0.098600
     33 C2B        80.5632   61.1291   41.3522 cb         1 CLA      0.088500
     34 C2C        75.0879   59.1424   43.2095 cb         1 CLA      0.053700
     35 C2D        74.2700   56.0496   37.9772 cb         1 CLA      0.058900
     36 O2A        82.3730   55.6968   34.7450 o1         1 CLA     -0.437200
     37 O2D        78.4756   53.8399   36.9636 o1         1 CLA     -0.357600
     38 C3         84.6594   52.9806   35.8004 c5         1 CLA      0.031200
     39 C3A        81.0372   58.1316   37.2777 a1         1 CLA      0.166800
     40 C3B        79.6487   61.1774   42.3915 cb         1 CLA      0.035000
     41 C3C        74.2281   58.1700   42.6466 cb         1 CLA     -0.089900
     42 C3D        75.3986   55.8147   37.1383 cb         1 CLA     -0.035900
     43 C4         84.7264   51.5156   35.5415 a3         1 CLA     -0.053300
     44 C4A        80.0941   58.7397   38.3016 ac         1 CLA      0.001800
     45 C4B        78.4277   60.4924   41.9061 cn         1 CLA     -0.020900
     46 C4C        74.7197   58.0141   41.3031 cr         1 CLA     -0.044400
     47 C4D        76.4025   56.6534   37.5689 c6         1 CLA     -0.046000
     48 C5         85.9919   53.5966   36.1325 a2         1 CLA     -0.070400
     49 C6         86.1307   54.0455   37.5314 a2         1 CLA      0.043900
     50 C7         87.2175   55.1310   37.7499 a2         1 CLA     -0.150000
     51 C8         87.1311   56.0738   38.9696 a1         1 CLA      0.064200
     52 C9         86.3063   57.3733   38.6479 a3         1 CLA     -0.259300
     53 C10        88.6140   56.4137   39.5496 a2         1 CLA     -0.071900
     54 C11        88.9256   57.4580   40.6722 a2         1 CLA      0.014500
     55 C12        88.2066   57.1093   41.9603 a2         1 CLA     -0.112100
     56 C13        88.4090   58.1587   43.0880 a1         1 CLA      0.089200
     57 C14        89.4096   57.7625   44.1280 a3         1 CLA     -0.239100
     58 C15        86.9496   58.4048   43.7094 a2         1 CLA     -0.102200
     59 C16        87.0152   59.5903   44.7702 a2         1 CLA      0.023900
     60 C17        85.6491   60.0499   45.0520 a2         1 CLA     -0.105700
     61 C18        84.8213   58.9623   45.9076 a1         1 CLA      0.206800
     62 C19        85.3972   58.6375   47.3639 a3         1 CLA     -0.280100
     63 C20        83.3390   59.4768   46.0206 a3         1 CLA     -0.280100
     64 NC         75.8402   58.8398   41.1561 nx         1 CLA     -0.309200
     65 MG         77.2373   58.8058   39.5511 mg         1 CLA      0.895000
     66 HMD3       72.5728   55.1479   38.9621 dc         1 CLA      0.064300
     67 HMD2       72.3454   56.1550   37.4148 dc         1 CLA      0.064300
     68 HMD1       72.9397   54.5114   37.4016 dc         1 CLA      0.064300
     69 HMC3       75.5167   60.5985   44.8344 dc         1 CLA      0.052100
     70 HMC2       74.1215   59.6092   45.0368 dc         1 CLA      0.052100
     71 HMC1       75.7119   58.7578   45.2168 dc         1 CLA      0.052100
     72 HMB3       82.7588   61.1135   41.8262 dc         1 CLA      0.063600
     73 HMB2       82.2195   61.7264   40.1930 dc         1 CLA      0.063600
     74 HMB1       81.8951   62.6833   41.6654 dc         1 CLA      0.063600
     75 HMA3       83.1027   58.0360   38.1972 dc         1 CLA      0.058300
     76 HMA2       82.0900   56.6154   38.6153 dc         1 CLA      0.058300
     77 HMA1       82.5210   56.7063   37.0119 dc         1 CLA      0.058300
     78 HED3       79.3038   52.1969   36.0631 dc         1 CLA      0.079300
     79 HED2       80.5880   53.2132   36.9628 dc         1 CLA      0.079300
     80 HED1       79.4357   52.2047   37.8446 dc         1 CLA      0.079300
     81 HBC3       73.1957   55.5788   42.2453 dc         1 CLA      0.016300
     82 HBC2       74.0805   55.6341   43.7527 dc         1 CLA      0.016300
     83 HBC1       72.2056   55.5031   43.7043 dc         1 CLA      0.016300
     84 HBB2       80.9452   62.4984   45.3997 da         1 CLA      0.183000
     85 HBB1       81.8070   61.5947   43.9471 da         1 CLA      0.183000
     86 HBA2       80.9122   58.2072   33.2217 dc         1 CLA      0.029400
     87 HBA1       81.9098   58.2664   34.6060 dc         1 CLA      0.029400
     88 HAC2       73.2277   57.6906   44.4419 dc         1 CLA      0.029300
     89 HAC1       72.1719   57.6795   42.9494 dc         1 CLA      0.029300
     90 HAA2       79.1351   57.3413   34.5434 dc         1 CLA      0.028700
     91 HAA1       79.6334   58.9446   35.0917 dc         1 CLA      0.028700
     92 H203       83.2909   60.3417   46.6376 dc         1 CLA      0.065600
     93 H202       83.0495   59.7300   45.0241 dc         1 CLA      0.065600
     94 H201       82.8013   58.5867   46.3560 dc         1 CLA      0.065600
     95 H193       85.4330   59.6092   47.8984 dc         1 CLA      0.065600
     96 H192       84.5832   58.1668   47.8522 dc         1 CLA      0.065600
     97 H191       86.3217   58.0160   47.3775 dc         1 CLA      0.065600
     98 H172       85.7923   61.0124   45.6045 dc         1 CLA      0.027600
     99 H171       85.0695   60.2920   44.1244 dc         1 CLA      0.027600
    100 H162       87.6027   59.3633   45.6192 dc         1 CLA      0.002900
    101 H161       87.4828   60.3509   44.1807 dc         1 CLA      0.002900
    102 H152       86.3244   58.7459   42.9295 dc         1 CLA      0.029100
    103 H151       86.5244   57.5050   44.1709 dc         1 CLA      0.029100
    104 H143       89.0255   56.9518   44.7139 dc         1 CLA      0.063600
    105 H142       90.4500   57.5957   43.7693 dc         1 CLA      0.063600
    106 H141       89.5613   58.6380   44.7758 dc         1 CLA      0.063600
    107 H122       87.2336   56.8775   41.6250 dc         1 CLA      0.032500
    108 H121       88.4472   56.1051   42.4212 dc         1 CLA      0.032500
    109 H112       89.9763   57.5126   40.8098 dc         1 CLA      0.006600
    110 H111       88.5974   58.4179   40.2759 dc         1 CLA      0.006600
    111 H102       89.0148   55.4982   39.9165 dc         1 CLA      0.024100
    112 H101       89.2177   56.6223   38.6240 dc         1 CLA      0.024100
    113 HHD        73.1390   56.8378   40.4426 da         1 CLA      0.174300
    114 HHC        77.2575   60.6666   43.6544 da         1 CLA      0.136800
    115 HHB        81.6544   59.7317   39.2979 da         1 CLA      0.138300
    116 HBD        77.2790   56.0624   34.8033 dc         1 CLA      0.107700
    117 HAB        78.7928   62.3041   44.0129 da         1 CLA      0.155200
    118 H93        86.0199   57.9335   39.4982 dc         1 CLA      0.069500
    119 H92        86.8892   58.0095   38.0198 dc         1 CLA      0.069500
    120 H91        85.3814   57.1365   38.0504 dc         1 CLA      0.069500
    121 H8         86.5977   55.6209   39.7832 dc         1 CLA      0.029300
    122 H72        88.1676   54.5765   37.8145 dc         1 CLA      0.044400
    123 H71        87.2864   55.8128   36.9101 dc         1 CLA      0.044400
    124 H62        85.1351   54.5249   37.7613 dc         1 CLA      0.015600
    125 H61        86.2658   53.1413   38.1859 dc         1 CLA      0.015600
    126 H52        86.8481   52.9674   35.8635 dc         1 CLA      0.033200
    127 H51        86.0502   54.5021   35.4884 dc         1 CLA      0.033200
    128 H43        85.3528   51.2849   34.6546 dc         1 CLA      0.037000
    129 H42        85.1840   50.9921   36.3406 dc         1 CLA      0.037000
    130 H41        83.7835   51.0514   35.4484 dc         1 CLA      0.037000
    131 H3A        81.3954   58.9591   36.6692 dc         1 CLA      0.041100
    132 H2A        80.4812   56.2795   36.2855 dc         1 CLA      0.083100
    133 H2         83.0840   54.0003   36.6692 da         1 CLA      0.180900
    134 H18        84.8110   57.9355   45.4813 dc         1 CLA     -0.003900
    135 H13        88.7377   59.0859   42.5463 dc         1 CLA      0.019700
    136 H12        82.2394   53.7444   34.0573 dc         1 CLA      0.120400
    137 H11        83.7719   54.4811   33.6899 dc         1 CLA      0.120400
    138 C1         69.7442   61.9588   50.4151 Z1         2 LUT      0.509236
    139 C2         68.3001   61.6016   50.8809 Z2         2 LUT     -0.434695
    140 C3         67.2459   62.7348   51.0168 Z3         2 LUT      0.437453
    141 O3         66.7671   62.8360   52.3460 S1         2 LUT     -0.547129
    142 C4         67.6717   64.0096   50.2952 Z4         2 LUT     -0.468603
    143 C5         68.4670   63.7068   49.0618 Z5         2 LUT      0.279246
    144 C6         69.5147   62.8191   49.1433 Z6         2 LUT     -0.305473
    145 C7         70.0153   62.2507   47.8987 Z7         2 LUT      0.069402
    146 C8         71.1512   62.5886   47.1891 Z8         2 LUT     -0.191631
    147 C9         71.5931   61.9150   45.9746 Z9         2 LUT      0.196698
    148 C10        72.6855   62.5348   45.3271 Y1         2 LUT     -0.208611
    149 C11        73.3273   62.3545   43.9981 Y2         2 LUT      0.030784
    150 C12        74.3839   63.1793   43.7009 Y3         2 LUT     -0.220316
    151 C13        75.2042   63.1978   42.4582 Y4         2 LUT      0.215937
    152 C14        76.3984   63.8766   42.6467 Y5         2 LUT     -0.185793
    153 C15        77.4429   64.0098   41.7237 Y6         2 LUT     -0.057835
    154 C16        70.2923   60.4790   50.0946 Y7         2 LUT     -0.405615
    155 C17        70.4412   62.4900   51.7050 Y7         2 LUT     -0.405615
    156 C18        67.7303   64.1765   47.8332 Y9         2 LUT     -0.369639
    157 C19        70.7616   60.7646   45.2512 W1         2 LUT     -0.333362
    158 C20        74.8709   62.4177   41.1891 W2         2 LUT     -0.323439
    159 C21        89.2211   65.0557   36.1357 Z1         2 LUT      0.406104
    160 C22        89.9443   64.3134   35.0009 Z2         2 LUT     -0.404965
    161 C23        89.9732   64.9555   33.6719 Z3         2 LUT      0.391255
    162 O23        90.5029   63.8431   32.8616 S1         2 LUT     -0.528210
    163 C24        88.7952   65.8543   33.3884 W6         2 LUT     -0.258361
    164 C25        87.7596   66.1144   34.2688 Z5         2 LUT      0.133546
    165 C26        87.7821   65.5328   35.6565 W8         2 LUT     -0.147008
    166 C27        86.8847   66.1987   36.6493 Z7         2 LUT      0.023843
    167 C28        85.6580   65.8755   37.0082 Z8         2 LUT     -0.216987
    168 C29        84.9492   66.3730   38.2167 Z9         2 LUT      0.206524
    169 C30        83.7900   65.7723   38.5707 Y1         2 LUT     -0.215556
    170 C31        82.9658   65.8091   39.7871 Y2         2 LUT      0.025142
    171 C32        81.7585   65.2913   39.9264 Y3         2 LUT     -0.212209
    172 C33        80.9639   65.3180   41.1258 Y4         2 LUT      0.240937
    173 C34        79.8725   64.5245   41.1108 Y5         2 LUT     -0.218862
    174 C35        78.6648   64.6052   41.9415 Y6         2 LUT     -0.023547
    175 C36        90.1265   66.2979   36.4867 Y7         2 LUT     -0.393485
    176 C37        89.1295   64.1247   37.3413 Y7         2 LUT     -0.393485
    177 C38        86.4972   66.8381   33.8050 Y9         2 LUT     -0.387526
    178 C39        85.5460   67.5181   39.0392 W1         2 LUT     -0.322618
    179 C40        81.2033   66.3539   42.2020 W2         2 LUT     -0.358472
    180 H403       82.1364   66.1678   42.7023 R7         2 LUT      0.097720
    181 H402       81.2992   67.3883   41.8074 R7         2 LUT      0.097720
    182 H401       80.5464   66.3788   42.9956 R7         2 LUT      0.097720
    183 H393       86.5184   67.3316   39.5625 R4         2 LUT      0.082505
    184 H392       85.6654   68.2754   38.2606 R4         2 LUT      0.082505
    185 H391       84.8554   67.9498   39.6661 R4         2 LUT      0.082505
    186 H383       86.5146   67.0516   32.7139 R1         2 LUT      0.104030
    187 H382       85.6796   66.1422   34.0527 R1         2 LUT      0.104030
    188 H381       86.4051   67.6718   34.3996 R1         2 LUT      0.104030
    189 H373       90.0664   63.6270   37.6779 T4         2 LUT      0.089537
    190 H372       88.6665   64.5090   38.2208 T4         2 LUT      0.089537
    191 H371       88.5061   63.2749   36.9927 T4         2 LUT      0.089537
    192 H363       89.6565   67.0068   37.2191 T4         2 LUT      0.089537
    193 H362       91.0788   65.9798   36.8337 T4         2 LUT      0.089537
    194 H361       90.2805   66.9584   35.6026 T4         2 LUT      0.089537
    195 H222       91.0207   63.9550   35.2539 U2         2 LUT      0.127376
    196 H221       89.3634   63.3746   34.8986 U2         2 LUT      0.127376
    197 H203       74.0980   62.8813   40.5506 R7         2 LUT      0.087068
    198 H202       75.6880   62.1159   40.4974 R7         2 LUT      0.087068
    199 H201       74.3864   61.5085   41.5277 R7         2 LUT      0.087068
    200 H193       70.5216   59.8734   45.8931 R4         2 LUT      0.089716
    201 H192       69.8271   61.1638   44.8786 R4         2 LUT      0.089716
    202 H191       71.3457   60.4881   44.4146 R4         2 LUT      0.089716
    203 H183       67.8555   65.2817   47.8026 R1         2 LUT      0.094572
    204 H182       68.1590   63.6062   46.9664 R1         2 LUT      0.094572
    205 H181       66.6864   63.9296   47.9221 R1         2 LUT      0.094572
    206 H173       69.8560   63.3208   52.1642 T4         2 LUT      0.093752
    207 H172       70.4286   61.6603   52.4541 T4         2 LUT      0.093752
    208 H171       71.4650   62.7917   51.5110 T4         2 LUT      0.093752
    209 H163       71.2406   60.4907   49.5192 T4         2 LUT      0.093752
    210 H162       70.4238   59.8504   50.9395 T4         2 LUT      0.093752
    211 H161       69.7053   59.8515   49.3746 T4         2 LUT      0.093752
    212 HO3        67.4778   63.1423   52.9722 Q1         2 LUT      0.300121
    213 H8         71.8363   63.3139   47.6963 U7         2 LUT      0.080784
    214 H7         69.3357   61.5690   47.4001 U6         2 LUT      0.042190
    215 H42        66.7499   64.6578   50.1450 U5         2 LUT      0.145166
    216 H41        68.3014   64.5404   51.0217 U5         2 LUT      0.145166
    217 H35        78.8635   65.0956   42.9466 T3         2 LUT      0.077919
    218 H34        79.7350   63.8039   40.3164 T2         2 LUT      0.073626
    219 H32        81.3129   64.8838   39.0137 T1         2 LUT      0.092510
    220 H31        83.3663   66.3653   40.6397 U9         2 LUT      0.070048
    221 H30        83.4227   64.9987   37.9189 U8         2 LUT      0.085442
    222 H3         66.3557   62.3531   50.4509 U3         2 LUT     -0.031596
    223 H28        85.1733   65.1149   36.4285 U7         2 LUT      0.084728
    224 H27        87.2042   67.0692   37.1025 U6         2 LUT      0.087291
    225 H26        87.1384   64.6131   35.3997 Q6         2 LUT      0.075325
    226 H24        88.8061   66.3183   32.3989 Q5         2 LUT      0.094482
    227 H23        90.7803   65.6694   33.7684 U3         2 LUT     -0.024869
    228 H22        67.8463   61.0008   50.1178 U2         2 LUT      0.127376
    229 H21        68.2083   61.0112   51.7976 U2         2 LUT      0.127376
    230 H15        77.3079   63.5581   40.7800 T3         2 LUT      0.093200
    231 H14        76.5340   64.4047   43.5809 T2         2 LUT      0.068865
    232 H12        74.7114   63.7862   44.4789 T1         2 LUT      0.095507
    233 H11        73.0223   61.5433   43.2653 U9         2 LUT      0.068930
    234 H10        73.0515   63.3981   45.8769 U8         2 LUT      0.083911
    235 H1         90.3471   63.9926   31.9109 Q1         2 LUT      0.297311
@<TRIPOS>BOND
    1     6     1 1
    2     7     2 1
    3     8     3 1
    4     9     4 1
    5    11     4 1
    6    12     6 1
    7    13     9 1
    8    16     9 1
    9    25     5 1
   10    25    16 1
   11    26    10 1
   12    26    17 1
   13    27    18 1
   14    28    14 1
   15    28    19 1
   16    29    12 1
   17    30    13 1
   18    31    24 1
   19    32     1 1
   20    32    25 1
   21    33    21 1
   22    33    26 1
   23    34    22 1
   24    34    27 1
   25    35    23 1
   26    35    28 1
   27    36    12 1
   28    36    24 1
   29    37    13 1
   30    37    15 1
   31    38    31 1
   32    39    20 1
   33    39    32 1
   34    40     2 1
   35    40    33 1
   36    41     3 1
   37    41    34 1
   38    42     4 1
   39    42    35 1
   40    43    38 1
   41    44     5 1
   42    44    17 1
   43    44    39 1
   44    45    10 1
   45    45    18 1
   46    45    40 1
   47    46    19 1
   48    46    41 1
   49    47    14 1
   50    47    16 1
   51    47    42 1
   52    48    38 1
   53    49    48 1
   54    50    49 1
   55    51    50 1
   56    52    51 1
   57    53    51 1
   58    54    53 1
   59    55    54 1
   60    56    55 1
   61    57    56 1
   62    58    56 1
   63    59    58 1
   64    60    59 1
   65    61    60 1
   66    62    61 1
   67    63    61 1
   68    64    27 1
   69    64    46 1
   70    65     5 1
   71    65    10 1
   72    65    64 1
   73    65    14 1
   74    66    23 1
   75    67    23 1
   76    68    23 1
   77    69    22 1
   78    70    22 1
   79    71    22 1
   80    72    21 1
   81    73    21 1
   82    74    21 1
   83    75    20 1
   84    76    20 1
   85    77    20 1
   86    78    15 1
   87    79    15 1
   88    80    15 1
   89    81     8 1
   90    82     8 1
   91    83     8 1
   92    84     7 1
   93    85     7 1
   94    86     6 1
   95    87     6 1
   96    88     3 1
   97    89     3 1
   98    90     1 1
   99    91     1 1
  100    92    63 1
  101    93    63 1
  102    94    63 1
  103    95    62 1
  104    96    62 1
  105    97    62 1
  106    98    60 1
  107    99    60 1
  108   100    59 1
  109   101    59 1
  110   102    58 1
  111   103    58 1
  112   104    57 1
  113   105    57 1
  114   106    57 1
  115   107    55 1
  116   108    55 1
  117   109    54 1
  118   110    54 1
  119   111    53 1
  120   112    53 1
  121   113    19 1
  122   114    18 1
  123   115    17 1
  124   116     9 1
  125   117     2 1
  126   118    52 1
  127   119    52 1
  128   120    52 1
  129   121    51 1
  130   122    50 1
  131   123    50 1
  132   124    49 1
  133   125    49 1
  134   126    48 1
  135   127    48 1
  136   128    43 1
  137   129    43 1
  138   130    43 1
  139   131    39 1
  140   132    32 1
  141   133    31 1
  142   134    61 1
  143   135    56 1
  144   136    24 1
  145   137    24 1
  146   139   138 1
  147   140   139 1
  148   141   140 1
  149   142   140 1
  150   143   142 1
  151   144   138 1
  152   144   143 1
  153   145   144 1
  154   146   145 1
  155   147   146 1
  156   148   147 1
  157   149   148 1
  158   150   149 1
  159   151   150 1
  160   152   151 1
  161   153   152 1
  162   154   138 1
  163   155   138 1
  164   156   143 1
  165   157   147 1
  166   158   151 1
  167   160   159 1
  168   161   160 1
  169   162   161 1
  170   163   161 1
  171   164   163 1
  172   165   159 1
  173   165   164 1
  174   166   165 1
  175   167   166 1
  176   168   167 1
  177   169   168 1
  178   170   169 1
  179   171   170 1
  180   172   171 1
  181   173   172 1
  182   174   153 1
  183   174   173 1
  184   175   159 1
  185   176   159 1
  186   177   164 1
  187   178   168 1
  188   179   172 1
  189   180   179 1
  190   181   179 1
  191   182   179 1
  192   183   178 1
  193   184   178 1
  194   185   178 1
  195   186   177 1
  196   187   177 1
  197   188   177 1
  198   189   176 1
  199   190   176 1
  200   191   176 1
  201   192   175 1
  202   193   175 1
  203   194   175 1
  204   195   160 1
  205   196   160 1
  206   197   158 1
  207   198   158 1
  208   199   158 1
  209   200   157 1
  210   201   157 1
  211   202   157 1
  212   203   156 1
  213   204   156 1
  214   205   156 1
  215   206   155 1
  216   207   155 1
  217   208   155 1
  218   209   154 1
  219   210   154 1
  220   211   154 1
  221   212   141 1
  222   213   146 1
  223   214   145 1
  224   215   142 1
  225   216   142 1
  226   217   174 1
  227   218   173 1
  228   219   171 1
  229   220   170 1
  230   221   169 1
  231   222   140 1
  232   223   167 1
  233   224   166 1
  234   225   165 1
  235   226   163 1
  236   227   161 1
  237   228   139 1
  238   229   139 1
  239   230   153 1
  240   231   152 1
  241   232   150 1
  242   233   149 1
  243   234   148 1
  244   235   162 1
  245   65    153 1
  246   65    174 1
@<TRIPOS>SUBSTRUCTURE
      1 CLA               1 ****               0 ****  **** 
      2 LUT             138 ****               0 ****  **** 
