@<TRIPOS>MOLECULE
Cpptraj generated mol2 file.
  235   246     2     0     0
SMALL
USER_CHARGES


@<TRIPOS>ATOM
      1 CAA        79.7568   57.6973   34.2395 a2         1 CLA     -0.055900
      2 CAB        79.7858   61.8895   42.8562 c8         1 CLA     -0.148500
      3 CAC        72.7837   58.0681   42.7579 a2         1 CLA     -0.012600
      4 CAD        75.4276   55.4076   35.4453 ck         1 CLA      0.398800
      5 NA         78.6889   58.0590   37.6104 ns         1 CLA     -0.225500
      6 CBA        81.1108   57.6565   33.3817 a2         1 CLA     -0.135000
      7 CBB        80.9683   61.9833   43.4622 c0         1 CLA     -0.395200
      8 CBC        72.7867   56.5378   42.9226 a3         1 CLA     -0.037700
      9 CBD        76.9336   55.8356   35.1366 a1         1 CLA     -0.053900
     10 NB         78.6332   59.8169   40.1814 nm         1 CLA     -0.295700
     11 OBD        74.6754   54.7317   34.7009 o2         1 CLA     -0.494600
     12 CGA        81.5525   56.2290   33.1670 c4         1 CLA      0.827000
     13 CGD        77.7958   54.5925   35.0675 c4         1 CLA      0.655300
     14 ND         75.8985   57.4560   38.2208 nm         1 CLA     -0.291600
     15 CED        78.5338   52.6663   36.3518 a3         1 CLA      0.005400
     16 CHA        77.2738   56.7089   36.2770 cs         1 CLA     -0.123800
     17 CHB        80.5122   59.3755   38.6179 aa         1 CLA     -0.291900
     18 CHC        77.3150   60.1989   42.2080 aa         1 CLA     -0.090400
     19 CHD        74.0643   57.5245   39.9018 aa         1 CLA     -0.052000
     20 CMA        81.8404   56.7561   37.4165 a3         1 CLA     -0.230700
     21 CMB        82.0078   61.2350   40.4907 a3         1 CLA     -0.180800
     22 CMC        74.9426   59.8618   44.3225 a3         1 CLA     -0.134000
     23 CMD        72.6237   55.6082   37.6107 a3         1 CLA     -0.141100
     24 C1         82.6708   54.4167   34.0391 a2         1 CLA      0.023000
     25 C1A        78.5216   57.2573   36.5451 ac         1 CLA     -0.015100
     26 C1B        79.9245   59.9442   39.7864 cr         1 CLA      0.054700
     27 C1C        76.1077   59.5724   42.0134 cn         1 CLA     -0.005600
     28 C1D        74.6428   57.0665   38.6382 ap         1 CLA     -0.047300
     29 O1A        81.4207   55.6137   32.1143 o2         1 CLA     -0.610800
     30 O1D        78.4327   54.2393   34.0454 o2         1 CLA     -0.558200
     31 C2         83.2262   53.8171   35.3268 c8         1 CLA     -0.325100
     32 C2A        79.8195   57.0794   35.6838 a1         1 CLA      0.098600
     33 C2B        80.5959   60.8086   40.7052 cb         1 CLA      0.088500
     34 C2C        75.0431   59.3405   42.9146 cb         1 CLA      0.053700
     35 C2D        74.0558   56.1781   37.6462 cb         1 CLA      0.058900
     36 O2A        82.1519   55.7737   34.2577 o1         1 CLA     -0.437200
     37 O2D        77.6507   53.8706   36.2480 o1         1 CLA     -0.357600
     38 C3         84.3424   53.1640   35.5283 c5         1 CLA      0.031200
     39 C3A        80.8837   57.7887   36.6143 a1         1 CLA      0.166800
     40 C3B        79.6370   61.0977   41.6831 cb         1 CLA      0.035000
     41 C3C        74.0980   58.6416   42.2470 cb         1 CLA     -0.089900
     42 C3D        75.0662   56.0555   36.7060 cb         1 CLA     -0.035900
     43 C4         84.5105   51.6603   35.4365 a3         1 CLA     -0.053300
     44 C4A        80.0121   58.5045   37.6526 ac         1 CLA      0.001800
     45 C4B        78.4488   60.3567   41.3839 cn         1 CLA     -0.020900
     46 C4C        74.7117   58.3243   40.9286 cr         1 CLA     -0.044400
     47 C4D        76.1226   56.8433   37.0756 c6         1 CLA     -0.046000
     48 C5         85.6635   53.9787   35.6734 a2         1 CLA     -0.070400
     49 C6         86.0787   54.3426   37.1496 a2         1 CLA      0.043900
     50 C7         87.4252   54.9988   37.3522 a2         1 CLA     -0.150000
     51 C8         87.9524   55.2423   38.7969 a1         1 CLA      0.064200
     52 C9         87.2941   56.5275   39.3142 a3         1 CLA     -0.259300
     53 C10        89.5296   55.1445   38.9385 a2         1 CLA     -0.071900
     54 C11        90.1567   55.5049   40.2946 a2         1 CLA      0.014500
     55 C12        89.7069   54.5879   41.4307 a2         1 CLA     -0.112100
     56 C13        90.2252   54.8475   42.8489 a1         1 CLA      0.089200
     57 C14        89.6423   53.8271   43.8979 a3         1 CLA     -0.239100
     58 C15        90.0491   56.3667   43.3690 a2         1 CLA     -0.102200
     59 C16        88.6518   56.7922   43.7645 a2         1 CLA      0.023900
     60 C17        88.4546   58.3300   43.9151 a2         1 CLA     -0.105700
     61 C18        86.9865   58.8295   44.1989 a1         1 CLA      0.206800
     62 C19        85.9265   58.4235   43.0674 a3         1 CLA     -0.280100
     63 C20        86.4538   58.3728   45.6161 a3         1 CLA     -0.280100
     64 NC         75.8913   58.9188   40.8313 nx         1 CLA     -0.309200
     65 MG         77.2096   58.6111   39.1971 mg         1 CLA      0.895000
     66 HMD3       72.0018   56.3674   37.1744 dc         1 CLA      0.064300
     67 HMD2       72.4854   54.6001   37.2242 dc         1 CLA      0.064300
     68 HMD1       72.2921   55.4530   38.6530 dc         1 CLA      0.064300
     69 HMC3       73.9323   59.8718   44.7104 dc         1 CLA      0.052100
     70 HMC2       75.5207   59.2655   44.9989 dc         1 CLA      0.052100
     71 HMC1       75.3957   60.8316   44.3587 dc         1 CLA      0.052100
     72 HMB3       82.1410   61.4329   39.4416 dc         1 CLA      0.063600
     73 HMB2       82.2309   62.1447   41.0101 dc         1 CLA      0.063600
     74 HMB1       82.6224   60.3535   40.6574 dc         1 CLA      0.063600
     75 HMA3       81.2161   56.0037   37.8759 dc         1 CLA      0.058300
     76 HMA2       82.5998   56.2454   36.7445 dc         1 CLA      0.058300
     77 HMA1       82.3691   57.3434   38.1737 dc         1 CLA      0.058300
     78 HED3       79.4441   52.8353   35.8476 dc         1 CLA      0.079300
     79 HED2       78.7431   52.5041   37.3869 dc         1 CLA      0.079300
     80 HED1       78.0663   51.7950   35.8772 dc         1 CLA      0.079300
     81 HBC3       71.7652   56.3036   43.2178 dc         1 CLA      0.016300
     82 HBC2       73.0368   55.9961   42.0492 dc         1 CLA      0.016300
     83 HBC1       73.5063   56.2872   43.6687 dc         1 CLA      0.016300
     84 HBB2       81.1857   62.4880   44.4151 da         1 CLA      0.183000
     85 HBB1       81.8483   61.3233   43.1714 da         1 CLA      0.183000
     86 HBA2       80.9253   58.1666   32.4278 dc         1 CLA      0.029400
     87 HBA1       81.9699   58.0755   33.8168 dc         1 CLA      0.029400
     88 HAC2       72.4774   58.5677   43.6151 dc         1 CLA      0.029300
     89 HAC1       71.9941   58.4014   42.0191 dc         1 CLA      0.029300
     90 HAA2       79.0465   57.1493   33.5968 dc         1 CLA      0.028700
     91 HAA1       79.3787   58.7099   34.3035 dc         1 CLA      0.028700
     92 H203       86.0415   57.3456   45.6169 dc         1 CLA      0.065600
     93 H202       87.1581   58.5564   46.3875 dc         1 CLA      0.065600
     94 H201       85.6736   59.0249   45.9297 dc         1 CLA      0.065600
     95 H193       85.0932   59.0713   43.1922 dc         1 CLA      0.065600
     96 H192       86.2803   58.5326   42.0356 dc         1 CLA      0.065600
     97 H191       85.5797   57.4119   43.2240 dc         1 CLA      0.065600
     98 H172       89.1045   58.4464   44.8068 dc         1 CLA      0.027600
     99 H171       88.8957   59.0003   43.1774 dc         1 CLA      0.027600
    100 H162       88.0566   56.6055   42.9122 dc         1 CLA      0.002900
    101 H161       88.3267   56.3383   44.6168 dc         1 CLA      0.002900
    102 H152       90.7103   56.5820   44.1573 dc         1 CLA      0.029100
    103 H151       90.4474   57.0870   42.5929 dc         1 CLA      0.029100
    104 H143       90.1204   52.8200   43.8728 dc         1 CLA      0.063600
    105 H142       89.8175   54.1930   44.8766 dc         1 CLA      0.063600
    106 H141       88.5726   53.6416   43.7019 dc         1 CLA      0.063600
    107 H122       88.7297   54.4124   41.5705 dc         1 CLA      0.032500
    108 H121       90.0249   53.6395   41.0137 dc         1 CLA      0.032500
    109 H112       91.2082   55.3814   40.0467 dc         1 CLA      0.006600
    110 H111       89.9507   56.5528   40.5863 dc         1 CLA      0.006600
    111 H102       89.6892   54.0548   38.7708 dc         1 CLA      0.024100
    112 H101       89.9921   55.6923   38.1495 dc         1 CLA      0.024100
    113 HHD        73.0716   57.2115   40.1301 da         1 CLA      0.174300
    114 HHC        77.4901   60.6767   43.1961 da         1 CLA      0.136800
    115 HHB        81.5424   59.6598   38.4938 da         1 CLA      0.138300
    116 HBD        76.8775   56.3414   34.2338 dc         1 CLA      0.107700
    117 HAB        79.0323   62.4491   43.3954 da         1 CLA      0.155200
    118 H93        86.1531   56.3703   39.3025 dc         1 CLA      0.069500
    119 H92        87.4771   56.5735   40.3957 dc         1 CLA      0.069500
    120 H91        87.6280   57.5155   38.9449 dc         1 CLA      0.069500
    121 H8         87.4656   54.4205   39.3704 dc         1 CLA      0.029300
    122 H72        88.1937   54.4358   36.8190 dc         1 CLA      0.044400
    123 H71        87.3379   55.9662   36.7898 dc         1 CLA      0.044400
    124 H62        85.4130   55.1032   37.5020 dc         1 CLA      0.015600
    125 H61        86.0543   53.4844   37.6843 dc         1 CLA      0.015600
    126 H52        86.4118   53.5760   35.0514 dc         1 CLA      0.033200
    127 H51        85.4191   54.9575   35.2704 dc         1 CLA      0.033200
    128 H43        84.7980   51.4718   36.4747 dc         1 CLA      0.037000
    129 H42        83.5415   51.2155   35.2095 dc         1 CLA      0.037000
    130 H41        85.2601   51.3789   34.7160 dc         1 CLA      0.037000
    131 H3A        81.3144   58.5693   36.0101 dc         1 CLA      0.041100
    132 H2A        80.0321   56.0055   35.6161 dc         1 CLA      0.083100
    133 H2         82.5417   53.8078   36.1849 da         1 CLA      0.180900
    134 H18        86.9861   59.9343   44.2209 dc         1 CLA     -0.003900
    135 H13        91.3287   54.7284   42.8154 dc         1 CLA      0.019700
    136 H12        81.9404   53.7179   33.7557 dc         1 CLA      0.120400
    137 H11        83.4987   54.5398   33.3377 dc         1 CLA      0.120400
    138 C1         69.5617   61.4724   50.4872 Z1         2 LUT      0.509236
    139 C2         68.0564   61.0940   50.7796 Z2         2 LUT     -0.434695
    140 C3         67.1210   62.2571   51.0485 Z3         2 LUT      0.437453
    141 O3         67.1926   62.8050   52.4360 S1         2 LUT     -0.547129
    142 C4         67.5716   63.3900   50.1779 Z4         2 LUT     -0.468603
    143 C5         68.5066   63.1836   49.0414 Z5         2 LUT      0.279246
    144 C6         69.5765   62.3756   49.1784 Z6         2 LUT     -0.305473
    145 C7         70.2068   61.8120   48.0097 Z7         2 LUT      0.069402
    146 C8         70.7987   62.5451   47.0061 Z8         2 LUT     -0.191631
    147 C9         71.3452   62.2099   45.7621 Z9         2 LUT      0.196698
    148 C10        72.3719   62.9282   45.3247 Y1         2 LUT     -0.208611
    149 C11        73.0627   62.7165   44.0899 Y2         2 LUT      0.030784
    150 C12        74.2673   63.3542   43.6835 Y3         2 LUT     -0.220316
    151 C13        74.9781   63.1578   42.4454 Y4         2 LUT      0.215937
    152 C14        76.2352   63.7572   42.3374 Y5         2 LUT     -0.185793
    153 C15        77.2306   63.7238   41.2840 Y6         2 LUT     -0.057835
    154 C16        70.3414   60.1172   50.4249 Y7         2 LUT     -0.405615
    155 C17        70.1296   62.3357   51.6990 Y7         2 LUT     -0.405615
    156 C18        68.0638   63.9191   47.8042 Y9         2 LUT     -0.369639
    157 C19        70.7178   61.1004   45.0353 W1         2 LUT     -0.333362
    158 C20        74.2988   62.4484   41.2952 W2         2 LUT     -0.323439
    159 C21        89.0194   64.5035   35.5580 Z1         2 LUT      0.406104
    160 C22        89.5544   63.4922   34.4814 Z2         2 LUT     -0.404965
    161 C23        89.8230   64.0879   33.1162 Z3         2 LUT      0.391255
    162 O23        90.1860   63.0198   32.1976 S1         2 LUT     -0.528210
    163 C24        88.6878   65.0148   32.6671 W6         2 LUT     -0.258361
    164 C25        87.6238   65.4181   33.3876 Z5         2 LUT      0.133546
    165 C26        87.6024   64.9621   34.9329 W8         2 LUT     -0.147008
    166 C27        86.6533   65.6884   35.8686 Z7         2 LUT      0.023843
    167 C28        85.7224   65.0371   36.5733 Z8         2 LUT     -0.216987
    168 C29        85.0027   65.5153   37.7690 Z9         2 LUT      0.206524
    169 C30        83.8522   64.8939   38.2086 Y1         2 LUT     -0.215556
    170 C31        83.0286   65.2229   39.3389 Y2         2 LUT      0.025142
    171 C32        81.8158   64.6959   39.5045 Y3         2 LUT     -0.212209
    172 C33        80.8678   64.9951   40.5333 Y4         2 LUT      0.240937
    173 C34        79.5420   64.5512   40.4306 Y5         2 LUT     -0.218862
    174 C35        78.4302   64.4155   41.4434 Y6         2 LUT     -0.023547
    175 C36        89.9440   65.6891   35.8064 Y7         2 LUT     -0.393485
    176 C37        89.0023   63.7407   36.9562 Y7         2 LUT     -0.393485
    177 C38        86.6326   66.3958   32.8399 Y9         2 LUT     -0.387526
    178 C39        85.5657   66.6884   38.5332 W1         2 LUT     -0.322618
    179 C40        81.3888   65.6379   41.7853 W2         2 LUT     -0.358472
    180 H403       81.7226   66.6477   41.6148 R7         2 LUT      0.097720
    181 H402       80.5969   65.8227   42.5071 R7         2 LUT      0.097720
    182 H401       82.1403   65.0961   42.3473 R7         2 LUT      0.097720
    183 H393       85.6157   66.5750   39.5819 R4         2 LUT      0.082505
    184 H392       86.6213   66.8829   38.2589 R4         2 LUT      0.082505
    185 H391       85.0802   67.6544   38.2564 R4         2 LUT      0.082505
    186 H383       85.5592   66.0972   32.9061 R1         2 LUT      0.104030
    187 H382       86.6800   67.3139   33.4764 R1         2 LUT      0.104030
    188 H381       86.9625   66.7284   31.8465 R1         2 LUT      0.104030
    189 H373       89.9705   63.6047   37.4125 T4         2 LUT      0.089537
    190 H372       88.3563   64.2494   37.7415 T4         2 LUT      0.089537
    191 H371       88.5358   62.7484   36.7237 T4         2 LUT      0.089537
    192 H363       89.5707   66.3046   36.6312 T4         2 LUT      0.089537
    193 H362       90.8805   65.2576   36.1776 T4         2 LUT      0.089537
    194 H361       89.9761   66.3113   34.9426 T4         2 LUT      0.089537
    195 H222       90.5104   63.0936   34.7448 U2         2 LUT      0.127376
    196 H221       88.7850   62.6912   34.3150 U2         2 LUT      0.127376
    197 H203       74.7736   61.6357   40.6916 R7         2 LUT      0.087068
    198 H202       73.2301   62.0821   41.5389 R7         2 LUT      0.087068
    199 H201       74.0750   63.1853   40.5300 R7         2 LUT      0.087068
    200 H193       70.6631   61.2433   43.9933 R4         2 LUT      0.089716
    201 H192       71.1718   60.1509   45.2817 R4         2 LUT      0.089716
    202 H191       69.6710   61.1948   45.3719 R4         2 LUT      0.089716
    203 H183       68.7272   64.7556   47.5365 R1         2 LUT      0.094572
    204 H182       67.8064   63.1996   47.0073 R1         2 LUT      0.094572
    205 H181       67.0526   64.3537   47.7462 R1         2 LUT      0.094572
    206 H173       70.1376   63.4131   51.6291 T4         2 LUT      0.093752
    207 H172       69.6242   62.0860   52.6247 T4         2 LUT      0.093752
    208 H171       71.1980   62.0762   51.8860 T4         2 LUT      0.093752
    209 H163       71.4235   60.3345   50.2082 T4         2 LUT      0.093752
    210 H162       70.3226   59.5931   51.3637 T4         2 LUT      0.093752
    211 H161       69.9977   59.3552   49.7283 T4         2 LUT      0.093752
    212 HO3        66.8343   62.1929   53.0962 Q1         2 LUT      0.300121
    213 H8         70.9224   63.5835   47.2185 U7         2 LUT      0.080784
    214 H7         70.1758   60.7086   47.8727 U6         2 LUT      0.042190
    215 H42        66.7153   64.0012   49.9066 U5         2 LUT      0.145166
    216 H41        68.1798   63.9918   50.7676 U5         2 LUT      0.145166
    217 H35        78.7272   64.7711   42.4570 T3         2 LUT      0.077919
    218 H34        79.4322   63.9918   39.4437 T2         2 LUT      0.073626
    219 H32        81.4606   64.0076   38.7866 T1         2 LUT      0.092510
    220 H31        83.4301   65.9374   40.0403 U9         2 LUT      0.070048
    221 H30        83.3399   64.1452   37.5785 U8         2 LUT      0.085442
    222 H3         66.0733   62.0529   50.7099 U3         2 LUT     -0.031596
    223 H28        85.4661   64.0279   36.3362 U7         2 LUT      0.084728
    224 H27        86.7788   66.7245   36.0908 U6         2 LUT      0.087291
    225 H26        87.0817   64.0227   34.6872 Q6         2 LUT      0.075325
    226 H24        88.7677   65.5085   31.7487 Q5         2 LUT      0.094482
    227 H23        90.6354   64.8369   33.2593 U3         2 LUT     -0.024869
    228 H22        67.5724   60.3550   50.1206 U2         2 LUT      0.127376
    229 H21        68.0307   60.5186   51.7032 U2         2 LUT      0.127376
    230 H15        76.9451   63.2452   40.3794 T3         2 LUT      0.093200
    231 H14        76.6295   64.3264   43.1310 T2         2 LUT      0.068865
    232 H12        74.7247   64.0058   44.4641 T1         2 LUT      0.095507
    233 H11        72.6529   61.9784   43.3870 U9         2 LUT      0.068930
    234 H10        72.7587   63.7916   45.9264 U8         2 LUT      0.083911
    235 H1         90.4353   63.4370   31.3473 Q1         2 LUT      0.297311
@<TRIPOS>BOND
    1     6     1 1
    2     7     2 1
    3     8     3 1
    4     9     4 1
    5    11     4 1
    6    12     6 1
    7    13     9 1
    8    16     9 1
    9    25     5 1
   10    25    16 1
   11    26    10 1
   12    26    17 1
   13    27    18 1
   14    28    14 1
   15    28    19 1
   16    29    12 1
   17    30    13 1
   18    31    24 1
   19    32     1 1
   20    32    25 1
   21    33    21 1
   22    33    26 1
   23    34    22 1
   24    34    27 1
   25    35    23 1
   26    35    28 1
   27    36    12 1
   28    36    24 1
   29    37    13 1
   30    37    15 1
   31    38    31 1
   32    39    20 1
   33    39    32 1
   34    40     2 1
   35    40    33 1
   36    41     3 1
   37    41    34 1
   38    42     4 1
   39    42    35 1
   40    43    38 1
   41    44     5 1
   42    44    17 1
   43    44    39 1
   44    45    10 1
   45    45    18 1
   46    45    40 1
   47    46    19 1
   48    46    41 1
   49    47    14 1
   50    47    16 1
   51    47    42 1
   52    48    38 1
   53    49    48 1
   54    50    49 1
   55    51    50 1
   56    52    51 1
   57    53    51 1
   58    54    53 1
   59    55    54 1
   60    56    55 1
   61    57    56 1
   62    58    56 1
   63    59    58 1
   64    60    59 1
   65    61    60 1
   66    62    61 1
   67    63    61 1
   68    64    27 1
   69    64    46 1
   70    65     5 1
   71    65    10 1
   72    65    64 1
   73    65    14 1
   74    66    23 1
   75    67    23 1
   76    68    23 1
   77    69    22 1
   78    70    22 1
   79    71    22 1
   80    72    21 1
   81    73    21 1
   82    74    21 1
   83    75    20 1
   84    76    20 1
   85    77    20 1
   86    78    15 1
   87    79    15 1
   88    80    15 1
   89    81     8 1
   90    82     8 1
   91    83     8 1
   92    84     7 1
   93    85     7 1
   94    86     6 1
   95    87     6 1
   96    88     3 1
   97    89     3 1
   98    90     1 1
   99    91     1 1
  100    92    63 1
  101    93    63 1
  102    94    63 1
  103    95    62 1
  104    96    62 1
  105    97    62 1
  106    98    60 1
  107    99    60 1
  108   100    59 1
  109   101    59 1
  110   102    58 1
  111   103    58 1
  112   104    57 1
  113   105    57 1
  114   106    57 1
  115   107    55 1
  116   108    55 1
  117   109    54 1
  118   110    54 1
  119   111    53 1
  120   112    53 1
  121   113    19 1
  122   114    18 1
  123   115    17 1
  124   116     9 1
  125   117     2 1
  126   118    52 1
  127   119    52 1
  128   120    52 1
  129   121    51 1
  130   122    50 1
  131   123    50 1
  132   124    49 1
  133   125    49 1
  134   126    48 1
  135   127    48 1
  136   128    43 1
  137   129    43 1
  138   130    43 1
  139   131    39 1
  140   132    32 1
  141   133    31 1
  142   134    61 1
  143   135    56 1
  144   136    24 1
  145   137    24 1
  146   139   138 1
  147   140   139 1
  148   141   140 1
  149   142   140 1
  150   143   142 1
  151   144   138 1
  152   144   143 1
  153   145   144 1
  154   146   145 1
  155   147   146 1
  156   148   147 1
  157   149   148 1
  158   150   149 1
  159   151   150 1
  160   152   151 1
  161   153   152 1
  162   154   138 1
  163   155   138 1
  164   156   143 1
  165   157   147 1
  166   158   151 1
  167   160   159 1
  168   161   160 1
  169   162   161 1
  170   163   161 1
  171   164   163 1
  172   165   159 1
  173   165   164 1
  174   166   165 1
  175   167   166 1
  176   168   167 1
  177   169   168 1
  178   170   169 1
  179   171   170 1
  180   172   171 1
  181   173   172 1
  182   174   153 1
  183   174   173 1
  184   175   159 1
  185   176   159 1
  186   177   164 1
  187   178   168 1
  188   179   172 1
  189   180   179 1
  190   181   179 1
  191   182   179 1
  192   183   178 1
  193   184   178 1
  194   185   178 1
  195   186   177 1
  196   187   177 1
  197   188   177 1
  198   189   176 1
  199   190   176 1
  200   191   176 1
  201   192   175 1
  202   193   175 1
  203   194   175 1
  204   195   160 1
  205   196   160 1
  206   197   158 1
  207   198   158 1
  208   199   158 1
  209   200   157 1
  210   201   157 1
  211   202   157 1
  212   203   156 1
  213   204   156 1
  214   205   156 1
  215   206   155 1
  216   207   155 1
  217   208   155 1
  218   209   154 1
  219   210   154 1
  220   211   154 1
  221   212   141 1
  222   213   146 1
  223   214   145 1
  224   215   142 1
  225   216   142 1
  226   217   174 1
  227   218   173 1
  228   219   171 1
  229   220   170 1
  230   221   169 1
  231   222   140 1
  232   223   167 1
  233   224   166 1
  234   225   165 1
  235   226   163 1
  236   227   161 1
  237   228   139 1
  238   229   139 1
  239   230   153 1
  240   231   152 1
  241   232   150 1
  242   233   149 1
  243   234   148 1
  244   235   162 1
  245   65    153 1
  246   65    174 1
@<TRIPOS>SUBSTRUCTURE
      1 CLA               1 ****               0 ****  **** 
      2 LUT             138 ****               0 ****  **** 
