@<TRIPOS>MOLECULE
Cpptraj generated mol2 file.
  235   246     2     0     0
SMALL
USER_CHARGES


@<TRIPOS>ATOM
      1 CAA        77.6803   58.7002   35.1146 a2         1 CLA     -0.055900
      2 CAB        77.6006   62.7263   43.8109 c8         1 CLA     -0.148500
      3 CAC        70.8133   58.3035   43.8391 a2         1 CLA     -0.012600
      4 CAD        73.5484   55.6423   36.4548 ck         1 CLA      0.398800
      5 NA         76.6640   58.8057   38.5877 ns         1 CLA     -0.225500
      6 CBA        78.8255   58.6818   34.1286 a2         1 CLA     -0.135000
      7 CBB        77.2031   62.3316   45.0354 c0         1 CLA     -0.395200
      8 CBC        70.9667   56.8935   44.4977 a3         1 CLA     -0.037700
      9 CBD        75.1142   56.1808   36.1140 a1         1 CLA     -0.053900
     10 NB         76.4435   60.5813   41.0073 nm         1 CLA     -0.295700
     11 OBD        72.9322   54.7812   35.7638 o2         1 CLA     -0.494600
     12 CGA        79.2763   57.2984   33.5247 c4         1 CLA      0.827000
     13 CGD        76.0878   55.0112   36.0914 c4         1 CLA      0.655300
     14 ND         73.8191   57.8757   39.1758 nm         1 CLA     -0.291600
     15 CED        77.4483   53.5071   37.4479 a3         1 CLA      0.005400
     16 CHA        75.4120   57.2132   37.2955 cs         1 CLA     -0.123800
     17 CHB        78.3294   60.3247   39.4702 aa         1 CLA     -0.291900
     18 CHC        75.0515   61.0010   43.0254 aa         1 CLA     -0.090400
     19 CHD        72.1345   57.6498   40.9338 aa         1 CLA     -0.052000
     20 CMA        79.9687   58.1293   38.1105 a3         1 CLA     -0.230700
     21 CMB        79.5818   62.5518   41.3566 a3         1 CLA     -0.180800
     22 CMC        72.6540   60.5266   44.9793 a3         1 CLA     -0.134000
     23 CMD        71.0519   55.5358   38.7283 a3         1 CLA     -0.141100
     24 C1         80.6542   55.4211   33.7835 a2         1 CLA      0.023000
     25 C1A        76.5156   58.0684   37.4521 ac         1 CLA     -0.015100
     26 C1B        77.6895   60.8960   40.5693 cr         1 CLA      0.054700
     27 C1C        73.9931   60.1587   42.7637 cn         1 CLA     -0.005600
     28 C1D        72.6258   57.3875   39.6270 ap         1 CLA     -0.047300
     29 O1A        78.9738   56.8182   32.4361 o2         1 CLA     -0.610800
     30 O1D        76.7556   54.6632   35.0849 o2         1 CLA     -0.558200
     31 C2         81.2399   54.6900   34.9407 c8         1 CLA     -0.325100
     32 C2A        77.7934   58.0599   36.5787 a1         1 CLA      0.098600
     33 C2B        78.2792   61.8891   41.4262 cb         1 CLA      0.088500
     34 C2C        72.9340   59.8347   43.7141 cb         1 CLA      0.053700
     35 C2D        72.1562   56.4200   38.6659 cb         1 CLA      0.058900
     36 O2A        80.1632   56.6484   34.2991 o1         1 CLA     -0.437200
     37 O2D        76.3550   54.4973   37.3662 o1         1 CLA     -0.357600
     38 C3         82.5048   54.8462   35.3246 c5         1 CLA      0.031200
     39 C3A        78.7303   58.8237   37.4500 a1         1 CLA      0.166800
     40 C3B        77.3667   62.0551   42.4906 cb         1 CLA      0.035000
     41 C3C        72.0963   58.8434   43.1916 cb         1 CLA     -0.089900
     42 C3D        73.1895   56.3263   37.6728 cb         1 CLA     -0.035900
     43 C4         83.6401   53.9552   34.7777 a3         1 CLA     -0.053300
     44 C4A        77.8530   59.3503   38.6030 ac         1 CLA      0.001800
     45 C4B        76.2471   61.2034   42.2515 cn         1 CLA     -0.020900
     46 C4C        72.6722   58.5816   41.8861 cr         1 CLA     -0.044400
     47 C4D        74.1979   57.1313   38.0738 c6         1 CLA     -0.046000
     48 C5         82.8155   56.0047   36.2704 a2         1 CLA     -0.070400
     49 C6         83.8776   55.7082   37.3111 a2         1 CLA      0.043900
     50 C7         83.9045   56.6964   38.5249 a2         1 CLA     -0.150000
     51 C8         84.0175   58.2461   38.3368 a1         1 CLA      0.064200
     52 C9         84.9876   58.7850   37.2984 a3         1 CLA     -0.259300
     53 C10        84.0917   59.0297   39.7768 a2         1 CLA     -0.071900
     54 C11        83.1118   58.6909   40.8698 a2         1 CLA      0.014500
     55 C12        83.0500   59.8051   41.9632 a2         1 CLA     -0.112100
     56 C13        84.2081   59.9227   42.8957 a1         1 CLA      0.089200
     57 C14        84.3660   58.6455   43.7737 a3         1 CLA     -0.239100
     58 C15        84.1216   61.2374   43.7985 a2         1 CLA     -0.102200
     59 C16        83.0083   61.2852   44.8910 a2         1 CLA      0.023900
     60 C17        83.1250   62.5343   45.8612 a2         1 CLA     -0.105700
     61 C18        81.8812   62.8601   46.7731 a1         1 CLA      0.206800
     62 C19        82.3223   63.6860   47.9841 a3         1 CLA     -0.280100
     63 C20        80.7526   63.5368   45.9683 a3         1 CLA     -0.280100
     64 NC         73.7707   59.4065   41.6831 nx         1 CLA     -0.309200
     65 MG         75.0981   59.2192   40.0429 mg         1 CLA      0.895000
     66 HMD3       71.2360   54.5013   38.3472 dc         1 CLA      0.064300
     67 HMD2       70.7933   55.4167   39.7636 dc         1 CLA      0.064300
     68 HMD1       70.3371   56.0300   38.0994 dc         1 CLA      0.064300
     69 HMC3       71.7874   61.1057   44.7577 dc         1 CLA      0.052100
     70 HMC2       72.4597   59.8150   45.7370 dc         1 CLA      0.052100
     71 HMC1       73.4456   61.1146   45.3937 dc         1 CLA      0.052100
     72 HMB3       79.8434   62.8238   40.2866 dc         1 CLA      0.063600
     73 HMB2       79.4762   63.5924   41.7406 dc         1 CLA      0.063600
     74 HMB1       80.3964   61.9799   41.8319 dc         1 CLA      0.063600
     75 HMA3       79.5965   57.1766   38.4712 dc         1 CLA      0.058300
     76 HMA2       80.8050   57.8752   37.4952 dc         1 CLA      0.058300
     77 HMA1       80.3587   58.6422   38.9882 dc         1 CLA      0.058300
     78 HED3       78.4170   54.0517   37.3823 dc         1 CLA      0.079300
     79 HED2       77.4043   52.9287   38.3852 dc         1 CLA      0.079300
     80 HED1       77.3200   52.8211   36.6578 dc         1 CLA      0.079300
     81 HBC3       71.7423   57.0618   45.2389 dc         1 CLA      0.016300
     82 HBC2       69.9659   56.6588   44.8921 dc         1 CLA      0.016300
     83 HBC1       71.2580   56.1727   43.6617 dc         1 CLA      0.016300
     84 HBB2       77.5380   62.7929   45.9522 da         1 CLA      0.183000
     85 HBB1       76.6376   61.4213   45.2078 da         1 CLA      0.183000
     86 HBA2       78.5446   59.3126   33.3014 dc         1 CLA      0.029400
     87 HBA1       79.7105   59.1004   34.6159 dc         1 CLA      0.029400
     88 HAC2       70.5359   58.9478   44.6725 dc         1 CLA      0.029300
     89 HAC1       70.0394   58.1869   43.1355 dc         1 CLA      0.029300
     90 HAA2       76.8150   58.3416   34.5720 dc         1 CLA      0.028700
     91 HAA1       77.4114   59.6947   35.3376 dc         1 CLA      0.028700
     92 H203       81.2393   64.2999   45.3600 dc         1 CLA      0.065600
     93 H202       80.2833   62.8086   45.2587 dc         1 CLA      0.065600
     94 H201       79.9721   63.9342   46.6261 dc         1 CLA      0.065600
     95 H193       81.5285   63.8088   48.6752 dc         1 CLA      0.065600
     96 H192       83.1090   63.2410   48.4702 dc         1 CLA      0.065600
     97 H191       82.6495   64.7437   47.8366 dc         1 CLA      0.065600
     98 H172       83.9522   62.2190   46.5170 dc         1 CLA      0.027600
     99 H171       83.5281   63.4153   45.2451 dc         1 CLA      0.027600
    100 H162       82.0349   61.1648   44.3744 dc         1 CLA      0.002900
    101 H161       83.1181   60.3382   45.4340 dc         1 CLA      0.002900
    102 H152       85.0857   61.3351   44.3277 dc         1 CLA      0.029100
    103 H151       83.9848   62.0947   43.1301 dc         1 CLA      0.029100
    104 H143       84.8092   57.8313   43.1964 dc         1 CLA      0.063600
    105 H142       84.9580   58.8467   44.6183 dc         1 CLA      0.063600
    106 H141       83.4279   58.3459   44.1883 dc         1 CLA      0.063600
    107 H122       82.9868   60.7204   41.4801 dc         1 CLA      0.032500
    108 H121       82.1190   59.7988   42.5575 dc         1 CLA      0.032500
    109 H112       82.1414   58.5665   40.3985 dc         1 CLA      0.006600
    110 H111       83.3519   57.8217   41.4265 dc         1 CLA      0.006600
    111 H102       85.0755   58.7243   40.1592 dc         1 CLA      0.024100
    112 H101       84.2512   60.0757   39.6511 dc         1 CLA      0.024100
    113 HHD        71.1079   57.2871   41.2724 da         1 CLA      0.174300
    114 HHC        75.0478   61.4995   43.9853 da         1 CLA      0.136800
    115 HHB        79.3140   60.7588   39.2826 da         1 CLA      0.138300
    116 HBD        75.0499   56.6627   35.1551 dc         1 CLA      0.107700
    117 HAB        78.3104   63.5822   43.7796 da         1 CLA      0.155200
    118 H93        86.0442   58.6978   37.6590 dc         1 CLA      0.069500
    119 H92        84.8136   58.2413   36.3557 dc         1 CLA      0.069500
    120 H91        84.6822   59.8030   37.1957 dc         1 CLA      0.069500
    121 H8         83.0781   58.4180   37.9197 dc         1 CLA      0.029300
    122 H72        82.9659   56.4788   39.1314 dc         1 CLA      0.044400
    123 H71        84.7883   56.4152   39.1660 dc         1 CLA      0.044400
    124 H62        83.4887   54.7615   37.7236 dc         1 CLA      0.015600
    125 H61        84.9006   55.5981   36.8048 dc         1 CLA      0.015600
    126 H52        82.9516   56.8898   35.6511 dc         1 CLA      0.033200
    127 H51        81.9015   56.1761   36.8413 dc         1 CLA      0.033200
    128 H43        83.2683   53.8285   33.7508 dc         1 CLA      0.037000
    129 H42        84.5956   54.4736   34.7806 dc         1 CLA      0.037000
    130 H41        83.8066   52.9782   35.2847 dc         1 CLA      0.037000
    131 H3A        79.2020   59.6582   36.9729 dc         1 CLA      0.041100
    132 H2A        78.0672   57.0235   36.5030 dc         1 CLA      0.083100
    133 H2         80.4643   54.0984   35.4257 da         1 CLA      0.180900
    134 H18        81.6736   61.8150   47.1286 dc         1 CLA     -0.003900
    135 H13        85.1271   59.9739   42.2735 dc         1 CLA      0.019700
    136 H12        79.8878   54.8331   33.3207 dc         1 CLA      0.120400
    137 H11        81.4405   55.6326   33.0945 dc         1 CLA      0.120400
    138 C1         66.7424   62.1127   51.2446 Z1         2 LUT      0.509236
    139 C2         66.7812   63.5499   51.8801 Z2         2 LUT     -0.434695
    140 C3         65.5093   64.3258   51.9990 Z3         2 LUT      0.437453
    141 O3         65.7479   65.6766   52.2162 S1         2 LUT     -0.547129
    142 C4         64.6839   64.0584   50.7613 Z4         2 LUT     -0.468603
    143 C5         65.3978   63.4881   49.6111 Z5         2 LUT      0.279246
    144 C6         66.2653   62.4661   49.7451 Z6         2 LUT     -0.305473
    145 C7         67.1899   62.0053   48.6355 Z7         2 LUT      0.069402
    146 C8         67.9582   62.7411   47.8030 Z8         2 LUT     -0.191631
    147 C9         68.8267   62.3663   46.6843 Z9         2 LUT      0.196698
    148 C10        69.4590   63.3792   46.0849 Y1         2 LUT     -0.208611
    149 C11        70.2754   63.3995   44.9253 Y2         2 LUT      0.030784
    150 C12        71.1181   64.2828   44.3636 Y3         2 LUT     -0.220316
    151 C13        71.9968   64.0030   43.2090 Y4         2 LUT      0.215937
    152 C14        73.1267   64.7704   43.0695 Y5         2 LUT     -0.185793
    153 C15        74.2396   64.6018   42.1655 Y6         2 LUT     -0.057835
    154 C16        65.7425   61.2207   52.0507 Y7         2 LUT     -0.405615
    155 C17        68.1600   61.4910   51.2893 Y7         2 LUT     -0.405615
    156 C18        65.1335   64.3691   48.4045 Y9         2 LUT     -0.369639
    157 C19        68.8618   60.9133   46.1372 W1         2 LUT     -0.333362
    158 C20        71.5565   62.9824   42.1691 W2         2 LUT     -0.323439
    159 C21        85.9485   66.0808   36.3507 Z1         2 LUT      0.406104
    160 C22        86.5540   65.4671   35.0523 Z2         2 LUT     -0.404965
    161 C23        86.5930   66.2540   33.7589 Z3         2 LUT      0.391255
    162 O23        87.1505   65.3718   32.7902 S1         2 LUT     -0.528210
    163 C24        85.3687   66.9768   33.5698 W6         2 LUT     -0.258361
    164 C25        84.4415   67.2336   34.4755 Z5         2 LUT      0.133546
    165 C26        84.4449   66.4745   35.8856 W8         2 LUT     -0.147008
    166 C27        83.6629   67.2085   36.9816 Z7         2 LUT      0.023843
    167 C28        82.4631   66.7221   37.3877 Z8         2 LUT     -0.216987
    168 C29        81.7057   67.2205   38.5578 Z9         2 LUT      0.206524
    169 C30        80.5974   66.4939   38.8963 Y1         2 LUT     -0.215556
    170 C31        79.7595   66.5427   40.0514 Y2         2 LUT      0.025142
    171 C32        78.5588   65.9742   40.2323 Y3         2 LUT     -0.212209
    172 C33        77.6978   65.9923   41.4020 Y4         2 LUT      0.240937
    173 C34        76.4317   65.4222   41.3438 Y5         2 LUT     -0.218862
    174 C35        75.3956   65.3727   42.3408 Y6         2 LUT     -0.023547
    175 C36        86.8748   67.2335   36.8631 Y7         2 LUT     -0.393485
    176 C37        85.9945   64.9885   37.4734 Y7         2 LUT     -0.393485
    177 C38        83.2109   68.0892   34.1254 Y9         2 LUT     -0.387526
    178 C39        82.2302   68.3899   39.3164 W1         2 LUT     -0.322618
    179 C40        78.2168   66.4918   42.7204 W2         2 LUT     -0.358472
    180 H403       79.2289   66.0980   43.0456 R7         2 LUT      0.097720
    181 H402       78.4189   67.5513   42.6284 R7         2 LUT      0.097720
    182 H401       77.5042   66.4069   43.4956 R7         2 LUT      0.097720
    183 H393       81.5415   68.6262   40.1471 R4         2 LUT      0.082505
    184 H392       83.2522   68.2530   39.6835 R4         2 LUT      0.082505
    185 H391       82.1363   69.2962   38.7451 R4         2 LUT      0.082505
    186 H383       83.2242   68.5829   33.1495 R1         2 LUT      0.104030
    187 H382       82.3798   67.3715   34.1461 R1         2 LUT      0.104030
    188 H381       82.9270   68.8911   34.9062 R1         2 LUT      0.104030
    189 H373       86.9624   64.7498   37.8486 T4         2 LUT      0.089537
    190 H372       85.4989   65.2774   38.4129 T4         2 LUT      0.089537
    191 H371       85.6124   64.0258   37.1222 T4         2 LUT      0.089537
    192 H363       87.9118   66.8871   37.1919 T4         2 LUT      0.089537
    193 H362       87.0469   67.9908   36.1133 T4         2 LUT      0.089537
    194 H361       86.4464   67.6301   37.7178 T4         2 LUT      0.089537
    195 H222       87.5833   65.0849   35.2367 U2         2 LUT      0.127376
    196 H221       85.9523   64.6392   34.7440 U2         2 LUT      0.127376
    197 H203       72.1993   62.1549   41.8871 R7         2 LUT      0.087068
    198 H202       70.5919   62.3734   42.2695 R7         2 LUT      0.087068
    199 H201       71.2755   63.5497   41.2811 R7         2 LUT      0.087068
    200 H193       69.7910   60.4266   46.0392 R4         2 LUT      0.089716
    201 H192       68.3136   60.1939   46.7552 R4         2 LUT      0.089716
    202 H191       68.4839   60.8925   45.1374 R4         2 LUT      0.089716
    203 H183       65.3310   63.9472   47.4126 R1         2 LUT      0.094572
    204 H182       63.9908   64.4867   48.4311 R1         2 LUT      0.094572
    205 H181       65.6591   65.3474   48.3714 R1         2 LUT      0.094572
    206 H173       68.4953   61.3480   52.3116 T4         2 LUT      0.093752
    207 H172       68.2139   60.5460   50.7794 T4         2 LUT      0.093752
    208 H171       68.8447   62.1540   50.8412 T4         2 LUT      0.093752
    209 H163       65.7074   60.3065   51.5123 T4         2 LUT      0.093752
    210 H162       65.9984   61.1175   53.1058 T4         2 LUT      0.093752
    211 H161       64.7616   61.6767   51.9980 T4         2 LUT      0.093752
    212 HO3        65.0647   66.1466   52.7816 Q1         2 LUT      0.300121
    213 H8         68.0299   63.7546   48.1495 U7         2 LUT      0.080784
    214 H7         67.2422   60.9610   48.3573 U6         2 LUT      0.042190
    215 H42        63.9028   63.2925   51.0355 U5         2 LUT      0.145166
    216 H41        64.0825   64.9420   50.4859 U5         2 LUT      0.145166
    217 H35        75.4692   65.9673   43.2458 T3         2 LUT      0.077919
    218 H34        76.1040   64.9543   40.4266 T2         2 LUT      0.073626
    219 H32        78.1564   65.5512   39.3698 T1         2 LUT      0.092510
    220 H31        80.1461   67.1064   40.8591 U9         2 LUT      0.070048
    221 H30        80.3313   65.7291   38.1926 U8         2 LUT      0.085442
    222 H3         64.9226   63.8176   52.8530 U3         2 LUT     -0.031596
    223 H28        82.1321   65.7942   36.9785 U7         2 LUT      0.084728
    224 H27        83.9822   68.1566   37.4562 U6         2 LUT      0.087291
    225 H26        84.0926   65.4477   35.7432 Q6         2 LUT      0.075325
    226 H24        85.3812   67.6453   32.7107 Q5         2 LUT      0.094482
    227 H23        87.1758   67.1914   33.9764 U3         2 LUT     -0.024869
    228 H22        67.0615   63.4358   52.9747 U2         2 LUT      0.127376
    229 H21        67.6147   64.1560   51.4047 U2         2 LUT      0.127376
    230 H15        74.2711   63.9901   41.3266 T3         2 LUT      0.093200
    231 H14        73.1693   65.5857   43.7775 T2         2 LUT      0.068865
    232 H12        71.2657   65.1068   45.0190 T1         2 LUT      0.095507
    233 H11        70.2531   62.4634   44.3529 U9         2 LUT      0.068930
    234 H10        69.4487   64.3960   46.6217 U8         2 LUT      0.083911
    235 H1         87.2742   65.8480   31.9263 Q1         2 LUT      0.297311
@<TRIPOS>BOND
    1     6     1 1
    2     7     2 1
    3     8     3 1
    4     9     4 1
    5    11     4 1
    6    12     6 1
    7    13     9 1
    8    16     9 1
    9    25     5 1
   10    25    16 1
   11    26    10 1
   12    26    17 1
   13    27    18 1
   14    28    14 1
   15    28    19 1
   16    29    12 1
   17    30    13 1
   18    31    24 1
   19    32     1 1
   20    32    25 1
   21    33    21 1
   22    33    26 1
   23    34    22 1
   24    34    27 1
   25    35    23 1
   26    35    28 1
   27    36    12 1
   28    36    24 1
   29    37    13 1
   30    37    15 1
   31    38    31 1
   32    39    20 1
   33    39    32 1
   34    40     2 1
   35    40    33 1
   36    41     3 1
   37    41    34 1
   38    42     4 1
   39    42    35 1
   40    43    38 1
   41    44     5 1
   42    44    17 1
   43    44    39 1
   44    45    10 1
   45    45    18 1
   46    45    40 1
   47    46    19 1
   48    46    41 1
   49    47    14 1
   50    47    16 1
   51    47    42 1
   52    48    38 1
   53    49    48 1
   54    50    49 1
   55    51    50 1
   56    52    51 1
   57    53    51 1
   58    54    53 1
   59    55    54 1
   60    56    55 1
   61    57    56 1
   62    58    56 1
   63    59    58 1
   64    60    59 1
   65    61    60 1
   66    62    61 1
   67    63    61 1
   68    64    27 1
   69    64    46 1
   70    65     5 1
   71    65    10 1
   72    65    64 1
   73    65    14 1
   74    66    23 1
   75    67    23 1
   76    68    23 1
   77    69    22 1
   78    70    22 1
   79    71    22 1
   80    72    21 1
   81    73    21 1
   82    74    21 1
   83    75    20 1
   84    76    20 1
   85    77    20 1
   86    78    15 1
   87    79    15 1
   88    80    15 1
   89    81     8 1
   90    82     8 1
   91    83     8 1
   92    84     7 1
   93    85     7 1
   94    86     6 1
   95    87     6 1
   96    88     3 1
   97    89     3 1
   98    90     1 1
   99    91     1 1
  100    92    63 1
  101    93    63 1
  102    94    63 1
  103    95    62 1
  104    96    62 1
  105    97    62 1
  106    98    60 1
  107    99    60 1
  108   100    59 1
  109   101    59 1
  110   102    58 1
  111   103    58 1
  112   104    57 1
  113   105    57 1
  114   106    57 1
  115   107    55 1
  116   108    55 1
  117   109    54 1
  118   110    54 1
  119   111    53 1
  120   112    53 1
  121   113    19 1
  122   114    18 1
  123   115    17 1
  124   116     9 1
  125   117     2 1
  126   118    52 1
  127   119    52 1
  128   120    52 1
  129   121    51 1
  130   122    50 1
  131   123    50 1
  132   124    49 1
  133   125    49 1
  134   126    48 1
  135   127    48 1
  136   128    43 1
  137   129    43 1
  138   130    43 1
  139   131    39 1
  140   132    32 1
  141   133    31 1
  142   134    61 1
  143   135    56 1
  144   136    24 1
  145   137    24 1
  146   139   138 1
  147   140   139 1
  148   141   140 1
  149   142   140 1
  150   143   142 1
  151   144   138 1
  152   144   143 1
  153   145   144 1
  154   146   145 1
  155   147   146 1
  156   148   147 1
  157   149   148 1
  158   150   149 1
  159   151   150 1
  160   152   151 1
  161   153   152 1
  162   154   138 1
  163   155   138 1
  164   156   143 1
  165   157   147 1
  166   158   151 1
  167   160   159 1
  168   161   160 1
  169   162   161 1
  170   163   161 1
  171   164   163 1
  172   165   159 1
  173   165   164 1
  174   166   165 1
  175   167   166 1
  176   168   167 1
  177   169   168 1
  178   170   169 1
  179   171   170 1
  180   172   171 1
  181   173   172 1
  182   174   153 1
  183   174   173 1
  184   175   159 1
  185   176   159 1
  186   177   164 1
  187   178   168 1
  188   179   172 1
  189   180   179 1
  190   181   179 1
  191   182   179 1
  192   183   178 1
  193   184   178 1
  194   185   178 1
  195   186   177 1
  196   187   177 1
  197   188   177 1
  198   189   176 1
  199   190   176 1
  200   191   176 1
  201   192   175 1
  202   193   175 1
  203   194   175 1
  204   195   160 1
  205   196   160 1
  206   197   158 1
  207   198   158 1
  208   199   158 1
  209   200   157 1
  210   201   157 1
  211   202   157 1
  212   203   156 1
  213   204   156 1
  214   205   156 1
  215   206   155 1
  216   207   155 1
  217   208   155 1
  218   209   154 1
  219   210   154 1
  220   211   154 1
  221   212   141 1
  222   213   146 1
  223   214   145 1
  224   215   142 1
  225   216   142 1
  226   217   174 1
  227   218   173 1
  228   219   171 1
  229   220   170 1
  230   221   169 1
  231   222   140 1
  232   223   167 1
  233   224   166 1
  234   225   165 1
  235   226   163 1
  236   227   161 1
  237   228   139 1
  238   229   139 1
  239   230   153 1
  240   231   152 1
  241   232   150 1
  242   233   149 1
  243   234   148 1
  244   235   162 1
  245   65    153 1
  246   65    174 1
@<TRIPOS>SUBSTRUCTURE
      1 CLA               1 ****               0 ****  **** 
      2 LUT             138 ****               0 ****  **** 
