@<TRIPOS>MOLECULE
Cpptraj generated mol2 file.
  235   246     2     0     0
SMALL
USER_CHARGES


@<TRIPOS>ATOM
      1 CAA        79.4800   58.1172   34.7918 a2         1 CLA     -0.055900
      2 CAB        79.5343   62.6517   43.2914 c8         1 CLA     -0.148500
      3 CAC        72.5437   58.4028   43.2390 a2         1 CLA     -0.012600
      4 CAD        75.0105   55.7943   35.9463 ck         1 CLA      0.398800
      5 NA         78.3573   58.6551   38.1333 ns         1 CLA     -0.225500
      6 CBA        80.6549   57.8166   33.8336 a2         1 CLA     -0.135000
      7 CBB        80.6546   62.9468   43.9268 c0         1 CLA     -0.395200
      8 CBC        72.7445   56.9696   43.7315 a3         1 CLA     -0.037700
      9 CBD        76.5375   56.0922   35.6643 a1         1 CLA     -0.053900
     10 NB         78.3786   60.3755   40.5651 nm         1 CLA     -0.295700
     11 OBD        74.2990   55.1185   35.1474 o2         1 CLA     -0.494600
     12 CGA        81.0212   56.3382   33.6313 c4         1 CLA      0.827000
     13 CGD        77.4280   54.9213   35.5367 c4         1 CLA      0.655300
     14 ND         75.5434   57.8954   38.6823 nm         1 CLA     -0.291600
     15 CED        77.5350   52.4816   35.7946 a3         1 CLA      0.005400
     16 CHA        76.9446   57.1068   36.7593 cs         1 CLA     -0.123800
     17 CHB        80.2901   59.9235   39.0929 aa         1 CLA     -0.291900
     18 CHC        77.0955   60.7310   42.6395 aa         1 CLA     -0.090400
     19 CHD        73.7027   58.0460   40.2869 aa         1 CLA     -0.052000
     20 CMA        81.5254   57.1994   38.0110 a3         1 CLA     -0.230700
     21 CMB        81.7593   62.1239   40.9596 a3         1 CLA     -0.180800
     22 CMC        74.8704   60.3504   44.7143 a3         1 CLA     -0.134000
     23 CMD        72.2515   56.2822   38.0489 a3         1 CLA     -0.141100
     24 C1         81.8361   54.3524   34.5785 a2         1 CLA      0.023000
     25 C1A        78.2149   57.7034   37.1014 ac         1 CLA     -0.015100
     26 C1B        79.6951   60.5630   40.1669 cr         1 CLA      0.054700
     27 C1C        75.8810   60.0325   42.3444 cn         1 CLA     -0.005600
     28 C1D        74.2444   57.6161   39.0407 ap         1 CLA     -0.047300
     29 O1A        80.6269   55.6010   32.6973 o2         1 CLA     -0.610800
     30 O1D        78.5498   54.8856   34.9771 o2         1 CLA     -0.558200
     31 C2         82.8147   53.9355   35.6953 c8         1 CLA     -0.325100
     32 C2A        79.5988   57.5536   36.2745 a1         1 CLA      0.098600
     33 C2B        80.3706   61.5579   41.0852 cb         1 CLA      0.088500
     34 C2C        74.7236   59.8675   43.2648 cb         1 CLA      0.053700
     35 C2D        73.6653   56.7013   38.0847 cb         1 CLA      0.058900
     36 O2A        81.9038   55.8088   34.5049 o1         1 CLA     -0.437200
     37 O2D        76.8787   53.7702   36.1313 o1         1 CLA     -0.357600
     38 C3         83.9911   53.3329   35.4392 c5         1 CLA      0.031200
     39 C3A        80.5709   58.2646   37.1989 a1         1 CLA      0.166800
     40 C3B        79.4880   61.7219   42.1216 cb         1 CLA      0.035000
     41 C3C        73.7873   59.0464   42.6468 cb         1 CLA     -0.089900
     42 C3D        74.6852   56.4780   37.1992 cb         1 CLA     -0.035900
     43 C4         84.1330   51.7653   35.5255 a3         1 CLA     -0.053300
     44 C4A        79.6926   58.9904   38.2005 ac         1 CLA      0.001800
     45 C4B        78.2170   60.9569   41.7909 cn         1 CLA     -0.020900
     46 C4C        74.3605   58.7765   41.3471 cr         1 CLA     -0.044400
     47 C4D        75.7900   57.2156   37.5617 c6         1 CLA     -0.046000
     48 C5         85.2761   54.0775   35.0187 a2         1 CLA     -0.070400
     49 C6         85.8690   55.2640   35.8187 a2         1 CLA      0.043900
     50 C7         86.0808   55.0056   37.2616 a2         1 CLA     -0.150000
     51 C8         86.0131   56.2352   38.1440 a1         1 CLA      0.064200
     52 C9         87.0941   57.2591   37.6845 a3         1 CLA     -0.259300
     53 C10        86.0775   55.8479   39.6464 a2         1 CLA     -0.071900
     54 C11        85.8876   57.0247   40.6563 a2         1 CLA      0.014500
     55 C12        86.1441   56.6461   42.1095 a2         1 CLA     -0.112100
     56 C13        85.9922   57.8574   43.0945 a1         1 CLA      0.089200
     57 C14        87.2750   58.7513   43.1021 a3         1 CLA     -0.239100
     58 C15        85.8161   57.3261   44.5635 a2         1 CLA     -0.102200
     59 C16        85.5774   58.3332   45.7395 a2         1 CLA      0.023900
     60 C17        85.3223   57.5985   47.0390 a2         1 CLA     -0.105700
     61 C18        85.6497   58.3582   48.3667 a1         1 CLA      0.206800
     62 C19        84.7878   59.6056   48.5854 a3         1 CLA     -0.280100
     63 C20        85.3830   57.3721   49.4736 a3         1 CLA     -0.280100
     64 NC         75.6135   59.2985   41.1990 nx         1 CLA     -0.309200
     65 MG         76.9164   59.2265   39.5130 mg         1 CLA      0.895000
     66 HMD3       71.4573   57.0301   37.9465 dc         1 CLA      0.064300
     67 HMD2       72.1282   55.5751   37.2741 dc         1 CLA      0.064300
     68 HMD1       72.0771   55.6960   38.9596 dc         1 CLA      0.064300
     69 HMC3       73.8895   60.2870   45.2190 dc         1 CLA      0.052100
     70 HMC2       75.5769   59.7592   45.2736 dc         1 CLA      0.052100
     71 HMC1       75.1347   61.3885   44.7650 dc         1 CLA      0.052100
     72 HMB3       82.0269   62.9212   41.7367 dc         1 CLA      0.063600
     73 HMB2       82.4601   61.2867   40.8220 dc         1 CLA      0.063600
     74 HMB1       81.8611   62.6278   40.0006 dc         1 CLA      0.063600
     75 HMA3       82.0872   56.5991   37.3468 dc         1 CLA      0.058300
     76 HMA2       82.2343   57.7929   38.5422 dc         1 CLA      0.058300
     77 HMA1       80.9163   56.4855   38.6077 dc         1 CLA      0.058300
     78 HED3       76.9148   51.6556   36.1449 dc         1 CLA      0.079300
     79 HED2       77.5271   52.3661   34.6893 dc         1 CLA      0.079300
     80 HED1       78.5577   52.4140   36.0804 dc         1 CLA      0.079300
     81 HBC3       72.8132   56.2230   42.9898 dc         1 CLA      0.016300
     82 HBC2       73.6437   56.9715   44.3565 dc         1 CLA      0.016300
     83 HBC1       71.8679   56.7133   44.2963 dc         1 CLA      0.016300
     84 HBB2       80.7518   63.7959   44.6652 da         1 CLA      0.183000
     85 HBB1       81.5847   62.4101   43.7730 da         1 CLA      0.183000
     86 HBA2       80.3018   58.1063   32.8022 dc         1 CLA      0.029400
     87 HBA1       81.4523   58.5089   34.0537 dc         1 CLA      0.029400
     88 HAC2       72.1546   58.9306   44.0723 dc         1 CLA      0.029300
     89 HAC1       71.7866   58.3832   42.5023 dc         1 CLA      0.029300
     90 HAA2       78.7242   57.5338   34.3535 dc         1 CLA      0.028700
     91 HAA1       79.3434   59.1851   34.7550 dc         1 CLA      0.028700
     92 H203       84.4147   57.0021   49.3477 dc         1 CLA      0.065600
     93 H202       86.0755   56.5721   49.5246 dc         1 CLA      0.065600
     94 H201       85.4841   57.9508   50.4443 dc         1 CLA      0.065600
     95 H193       85.1158   60.1468   49.4906 dc         1 CLA      0.065600
     96 H192       84.8976   60.2594   47.7288 dc         1 CLA      0.065600
     97 H191       83.7036   59.4399   48.7883 dc         1 CLA      0.065600
     98 H172       84.3542   57.2385   46.9686 dc         1 CLA      0.027600
     99 H171       85.9719   56.7209   47.0271 dc         1 CLA      0.027600
    100 H162       86.4961   58.9164   45.8008 dc         1 CLA      0.002900
    101 H161       84.7305   58.9850   45.5445 dc         1 CLA      0.002900
    102 H152       85.0514   56.5714   44.6606 dc         1 CLA      0.029100
    103 H151       86.7471   56.7861   44.8058 dc         1 CLA      0.029100
    104 H143       87.5438   58.9139   42.0403 dc         1 CLA      0.063600
    105 H142       87.0083   59.7552   43.5242 dc         1 CLA      0.063600
    106 H141       88.1080   58.3265   43.6763 dc         1 CLA      0.063600
    107 H122       85.5335   55.8062   42.4292 dc         1 CLA      0.032500
    108 H121       87.1385   56.2257   42.1772 dc         1 CLA      0.032500
    109 H112       86.6155   57.8450   40.5453 dc         1 CLA      0.006600
    110 H111       84.9230   57.4775   40.5785 dc         1 CLA      0.006600
    111 H102       85.2785   55.1777   39.8088 dc         1 CLA      0.024100
    112 H101       87.0620   55.4564   39.8820 dc         1 CLA      0.024100
    113 HHD        72.6200   57.8003   40.4624 da         1 CLA      0.174300
    114 HHC        77.2557   61.0830   43.6953 da         1 CLA      0.136800
    115 HHB        81.3478   60.1798   39.0083 da         1 CLA      0.138300
    116 HBD        76.7450   56.5756   34.7191 dc         1 CLA      0.107700
    117 HAB        78.6189   63.1360   43.5858 da         1 CLA      0.155200
    118 H93        87.0264   58.1486   38.2687 dc         1 CLA      0.069500
    119 H92        88.0564   56.7535   37.7946 dc         1 CLA      0.069500
    120 H91        86.9955   57.6370   36.6665 dc         1 CLA      0.069500
    121 H8         85.0685   56.7818   38.1336 dc         1 CLA      0.029300
    122 H72        85.2220   54.4113   37.5021 dc         1 CLA      0.044400
    123 H71        86.9906   54.3666   37.3906 dc         1 CLA      0.044400
    124 H62        86.8072   55.5114   35.4707 dc         1 CLA      0.015600
    125 H61        85.1378   56.0540   35.6795 dc         1 CLA      0.015600
    126 H52        86.0236   53.3444   34.8214 dc         1 CLA      0.033200
    127 H51        85.0234   54.4116   34.0320 dc         1 CLA      0.033200
    128 H43        83.1597   51.3766   35.7844 dc         1 CLA      0.037000
    129 H42        84.3927   51.3388   34.5118 dc         1 CLA      0.037000
    130 H41        84.7669   51.3771   36.3536 dc         1 CLA      0.037000
    131 H3A        81.0993   58.9310   36.5769 dc         1 CLA      0.041100
    132 H2A        79.8944   56.4513   36.3350 dc         1 CLA      0.083100
    133 H2         82.5023   54.1098   36.7518 da         1 CLA      0.180900
    134 H18        86.6896   58.6696   48.3266 dc         1 CLA     -0.003900
    135 H13        85.0930   58.4671   42.8775 dc         1 CLA      0.019700
    136 H12        80.8589   54.0911   35.0077 dc         1 CLA      0.120400
    137 H11        81.9635   53.9214   33.5561 dc         1 CLA      0.120400
    138 C1         69.6709   61.8275   50.1156 Z1         2 LUT      0.509236
    139 C2         68.4442   61.4663   50.9917 Z2         2 LUT     -0.434695
    140 C3         67.4676   62.5469   51.5367 Z3         2 LUT      0.437453
    141 O3         67.9152   62.8980   52.8474 S1         2 LUT     -0.547129
    142 C4         67.5071   63.7804   50.6050 Z4         2 LUT     -0.468603
    143 C5         68.1289   63.6066   49.2128 Z5         2 LUT      0.279246
    144 C6         69.1309   62.6776   48.9443 Z6         2 LUT     -0.305473
    145 C7         69.5056   62.2129   47.6004 Z7         2 LUT      0.069402
    146 C8         70.3812   62.8956   46.8019 Z8         2 LUT     -0.191631
    147 C9         70.8748   62.5057   45.5333 Z9         2 LUT      0.196698
    148 C10        71.8763   63.2317   45.0067 Y1         2 LUT     -0.208611
    149 C11        72.4806   63.1114   43.7721 Y2         2 LUT      0.030784
    150 C12        73.7727   63.5631   43.5918 Y3         2 LUT     -0.220316
    151 C13        74.6402   63.4559   42.4907 Y4         2 LUT      0.215937
    152 C14        75.7906   64.2823   42.4210 Y5         2 LUT     -0.185793
    153 C15        76.8240   64.2251   41.4329 Y6         2 LUT     -0.057835
    154 C16        70.4250   60.5612   49.7322 Y7         2 LUT     -0.405615
    155 C17        70.6081   62.6726   50.9950 Y7         2 LUT     -0.405615
    156 C18        67.3703   64.2598   48.1139 Y9         2 LUT     -0.369639
    157 C19        70.1102   61.4560   44.7508 W1         2 LUT     -0.333362
    158 C20        74.2081   62.6254   41.3109 W2         2 LUT     -0.323439
    159 C21        88.3828   65.4506   35.3347 Z1         2 LUT      0.406104
    160 C22        88.9060   64.7200   34.0664 Z2         2 LUT     -0.404965
    161 C23        88.8657   65.3777   32.6841 Z3         2 LUT      0.391255
    162 O23        89.1119   64.3120   31.7417 S1         2 LUT     -0.528210
    163 C24        87.5086   66.0124   32.5335 W6         2 LUT     -0.258361
    164 C25        86.6830   66.3221   33.5272 Z5         2 LUT      0.133546
    165 C26        86.8765   65.6967   34.9539 W8         2 LUT     -0.147008
    166 C27        86.1584   66.4538   36.0322 Z7         2 LUT      0.023843
    167 C28        84.9070   66.1384   36.5096 Z8         2 LUT     -0.216987
    168 C29        84.1947   66.7155   37.6627 Z9         2 LUT      0.206524
    169 C30        83.1190   65.8839   37.9921 Y1         2 LUT     -0.215556
    170 C31        82.1396   66.1524   39.0528 Y2         2 LUT      0.025142
    171 C32        81.1007   65.3239   39.4380 Y3         2 LUT     -0.212209
    172 C33        80.1371   65.5433   40.4703 Y4         2 LUT      0.240937
    173 C34        78.9720   64.8418   40.4917 Y5         2 LUT     -0.218862
    174 C35        77.8986   65.0597   41.4459 Y6         2 LUT     -0.023547
    175 C36        89.2148   66.7696   35.5372 Y7         2 LUT     -0.393485
    176 C37        88.6995   64.3274   36.3709 Y7         2 LUT     -0.393485
    177 C38        85.5411   67.2810   33.2974 Y9         2 LUT     -0.387526
    178 C39        84.5709   68.0164   38.3087 W1         2 LUT     -0.322618
    179 C40        80.7106   66.3437   41.5822 W2         2 LUT     -0.358472
    180 H403       81.7464   66.5800   41.5953 R7         2 LUT      0.097720
    181 H402       80.1770   67.2912   41.7990 R7         2 LUT      0.097720
    182 H401       80.4961   65.6695   42.4695 R7         2 LUT      0.097720
    183 H393       85.6210   68.0691   38.5407 R4         2 LUT      0.082505
    184 H392       84.3722   68.9831   37.7193 R4         2 LUT      0.082505
    185 H391       84.0217   68.1048   39.2261 R4         2 LUT      0.082505
    186 H383       85.5986   67.9031   32.3977 R1         2 LUT      0.104030
    187 H382       84.6036   66.7753   33.1743 R1         2 LUT      0.104030
    188 H381       85.3759   67.9817   34.1483 R1         2 LUT      0.104030
    189 H373       88.2776   63.4245   36.0974 T4         2 LUT      0.089537
    190 H372       89.8245   64.1996   36.4096 T4         2 LUT      0.089537
    191 H371       88.3968   64.5815   37.4066 T4         2 LUT      0.089537
    192 H363       88.8639   67.4447   36.2874 T4         2 LUT      0.089537
    193 H362       90.2306   66.6605   35.6990 T4         2 LUT      0.089537
    194 H361       89.1156   67.4234   34.6254 T4         2 LUT      0.089537
    195 H222       89.9632   64.5303   34.2778 U2         2 LUT      0.127376
    196 H221       88.4189   63.7631   34.0582 U2         2 LUT      0.127376
    197 H203       74.9970   62.0479   40.7525 R7         2 LUT      0.087068
    198 H202       73.4600   61.8676   41.5372 R7         2 LUT      0.087068
    199 H201       73.7678   63.2057   40.4874 R7         2 LUT      0.087068
    200 H193       69.1728   61.0775   45.2507 R4         2 LUT      0.089716
    201 H192       69.9231   61.7324   43.7895 R4         2 LUT      0.089716
    202 H191       70.8313   60.5748   44.6067 R4         2 LUT      0.089716
    203 H183       66.3060   64.3455   48.3358 R1         2 LUT      0.094572
    204 H182       67.8570   65.2406   47.9967 R1         2 LUT      0.094572
    205 H181       67.4316   63.7167   47.1925 R1         2 LUT      0.094572
    206 H173       70.0724   63.4432   51.5703 T4         2 LUT      0.093752
    207 H172       71.0507   62.0349   51.7323 T4         2 LUT      0.093752
    208 H171       71.3727   63.2188   50.3770 T4         2 LUT      0.093752
    209 H163       70.8812   60.0157   50.5431 T4         2 LUT      0.093752
    210 H162       69.7865   59.8550   49.1599 T4         2 LUT      0.093752
    211 H161       71.2618   60.8991   49.1282 T4         2 LUT      0.093752
    212 HO3        67.1938   62.9130   53.5625 Q1         2 LUT      0.300121
    213 H8         70.7181   63.8714   47.2271 U7         2 LUT      0.080784
    214 H7         69.1515   61.2390   47.4734 U6         2 LUT      0.042190
    215 H42        66.4235   64.1293   50.6245 U5         2 LUT      0.145166
    216 H41        68.0330   64.5688   51.1027 U5         2 LUT      0.145166
    217 H35        77.8635   65.9379   42.1058 T3         2 LUT      0.077919
    218 H34        78.7711   64.1623   39.7483 T2         2 LUT      0.073626
    219 H32        80.8975   64.5221   38.7888 T1         2 LUT      0.092510
    220 H31        82.3374   67.0778   39.6422 U9         2 LUT      0.070048
    221 H30        83.0817   64.9298   37.3930 U8         2 LUT      0.085442
    222 H3         66.4499   62.0842   51.3540 U3         2 LUT     -0.031596
    223 H28        84.4809   65.2356   35.9762 U7         2 LUT      0.084728
    224 H27        86.5780   67.3222   36.4457 U6         2 LUT      0.087291
    225 H26        86.3665   64.6793   34.8112 Q6         2 LUT      0.075325
    226 H24        87.4649   66.4186   31.5426 Q5         2 LUT      0.094482
    227 H23        89.7129   66.1291   32.5881 U3         2 LUT     -0.024869
    228 H22        67.7382   60.7826   50.4526 U2         2 LUT      0.127376
    229 H21        68.8287   60.9872   51.8868 U2         2 LUT      0.127376
    230 H15        76.7660   63.5773   40.5728 T3         2 LUT      0.093200
    231 H14        75.9629   65.1317   43.0864 T2         2 LUT      0.068865
    232 H12        74.0618   64.2088   44.4037 T1         2 LUT      0.095507
    233 H11        71.9488   62.5197   43.0545 U9         2 LUT      0.068930
    234 H10        72.3110   64.0132   45.6143 U8         2 LUT      0.083911
    235 H1         89.4513   64.7482   30.9213 Q1         2 LUT      0.297311
@<TRIPOS>BOND
    1     6     1 1
    2     7     2 1
    3     8     3 1
    4     9     4 1
    5    11     4 1
    6    12     6 1
    7    13     9 1
    8    16     9 1
    9    25     5 1
   10    25    16 1
   11    26    10 1
   12    26    17 1
   13    27    18 1
   14    28    14 1
   15    28    19 1
   16    29    12 1
   17    30    13 1
   18    31    24 1
   19    32     1 1
   20    32    25 1
   21    33    21 1
   22    33    26 1
   23    34    22 1
   24    34    27 1
   25    35    23 1
   26    35    28 1
   27    36    12 1
   28    36    24 1
   29    37    13 1
   30    37    15 1
   31    38    31 1
   32    39    20 1
   33    39    32 1
   34    40     2 1
   35    40    33 1
   36    41     3 1
   37    41    34 1
   38    42     4 1
   39    42    35 1
   40    43    38 1
   41    44     5 1
   42    44    17 1
   43    44    39 1
   44    45    10 1
   45    45    18 1
   46    45    40 1
   47    46    19 1
   48    46    41 1
   49    47    14 1
   50    47    16 1
   51    47    42 1
   52    48    38 1
   53    49    48 1
   54    50    49 1
   55    51    50 1
   56    52    51 1
   57    53    51 1
   58    54    53 1
   59    55    54 1
   60    56    55 1
   61    57    56 1
   62    58    56 1
   63    59    58 1
   64    60    59 1
   65    61    60 1
   66    62    61 1
   67    63    61 1
   68    64    27 1
   69    64    46 1
   70    65     5 1
   71    65    10 1
   72    65    64 1
   73    65    14 1
   74    66    23 1
   75    67    23 1
   76    68    23 1
   77    69    22 1
   78    70    22 1
   79    71    22 1
   80    72    21 1
   81    73    21 1
   82    74    21 1
   83    75    20 1
   84    76    20 1
   85    77    20 1
   86    78    15 1
   87    79    15 1
   88    80    15 1
   89    81     8 1
   90    82     8 1
   91    83     8 1
   92    84     7 1
   93    85     7 1
   94    86     6 1
   95    87     6 1
   96    88     3 1
   97    89     3 1
   98    90     1 1
   99    91     1 1
  100    92    63 1
  101    93    63 1
  102    94    63 1
  103    95    62 1
  104    96    62 1
  105    97    62 1
  106    98    60 1
  107    99    60 1
  108   100    59 1
  109   101    59 1
  110   102    58 1
  111   103    58 1
  112   104    57 1
  113   105    57 1
  114   106    57 1
  115   107    55 1
  116   108    55 1
  117   109    54 1
  118   110    54 1
  119   111    53 1
  120   112    53 1
  121   113    19 1
  122   114    18 1
  123   115    17 1
  124   116     9 1
  125   117     2 1
  126   118    52 1
  127   119    52 1
  128   120    52 1
  129   121    51 1
  130   122    50 1
  131   123    50 1
  132   124    49 1
  133   125    49 1
  134   126    48 1
  135   127    48 1
  136   128    43 1
  137   129    43 1
  138   130    43 1
  139   131    39 1
  140   132    32 1
  141   133    31 1
  142   134    61 1
  143   135    56 1
  144   136    24 1
  145   137    24 1
  146   139   138 1
  147   140   139 1
  148   141   140 1
  149   142   140 1
  150   143   142 1
  151   144   138 1
  152   144   143 1
  153   145   144 1
  154   146   145 1
  155   147   146 1
  156   148   147 1
  157   149   148 1
  158   150   149 1
  159   151   150 1
  160   152   151 1
  161   153   152 1
  162   154   138 1
  163   155   138 1
  164   156   143 1
  165   157   147 1
  166   158   151 1
  167   160   159 1
  168   161   160 1
  169   162   161 1
  170   163   161 1
  171   164   163 1
  172   165   159 1
  173   165   164 1
  174   166   165 1
  175   167   166 1
  176   168   167 1
  177   169   168 1
  178   170   169 1
  179   171   170 1
  180   172   171 1
  181   173   172 1
  182   174   153 1
  183   174   173 1
  184   175   159 1
  185   176   159 1
  186   177   164 1
  187   178   168 1
  188   179   172 1
  189   180   179 1
  190   181   179 1
  191   182   179 1
  192   183   178 1
  193   184   178 1
  194   185   178 1
  195   186   177 1
  196   187   177 1
  197   188   177 1
  198   189   176 1
  199   190   176 1
  200   191   176 1
  201   192   175 1
  202   193   175 1
  203   194   175 1
  204   195   160 1
  205   196   160 1
  206   197   158 1
  207   198   158 1
  208   199   158 1
  209   200   157 1
  210   201   157 1
  211   202   157 1
  212   203   156 1
  213   204   156 1
  214   205   156 1
  215   206   155 1
  216   207   155 1
  217   208   155 1
  218   209   154 1
  219   210   154 1
  220   211   154 1
  221   212   141 1
  222   213   146 1
  223   214   145 1
  224   215   142 1
  225   216   142 1
  226   217   174 1
  227   218   173 1
  228   219   171 1
  229   220   170 1
  230   221   169 1
  231   222   140 1
  232   223   167 1
  233   224   166 1
  234   225   165 1
  235   226   163 1
  236   227   161 1
  237   228   139 1
  238   229   139 1
  239   230   153 1
  240   231   152 1
  241   232   150 1
  242   233   149 1
  243   234   148 1
  244   235   162 1
  245   65    153 1
  246   65    174 1
@<TRIPOS>SUBSTRUCTURE
      1 CLA               1 ****               0 ****  **** 
      2 LUT             138 ****               0 ****  **** 
