@<TRIPOS>MOLECULE
Cpptraj generated mol2 file.
  235   246     2     0     0
SMALL
USER_CHARGES


@<TRIPOS>ATOM
      1 CAA        79.2725   58.5034   34.3479 a2         1 CLA     -0.055900
      2 CAB        79.4810   62.3668   43.2495 c8         1 CLA     -0.148500
      3 CAC        72.3918   58.8302   42.9856 a2         1 CLA     -0.012600
      4 CAD        74.9363   56.0394   35.6652 ck         1 CLA      0.398800
      5 NA         78.3713   58.7860   37.8840 ns         1 CLA     -0.225500
      6 CBA        80.5179   58.3302   33.4936 a2         1 CLA     -0.135000
      7 CBB        80.2178   63.5006   43.5123 c0         1 CLA     -0.395200
      8 CBC        72.3423   57.3307   43.2403 a3         1 CLA     -0.037700
      9 CBD        76.3962   56.5957   35.2826 a1         1 CLA     -0.053900
     10 NB         78.2513   60.5477   40.2266 nm         1 CLA     -0.295700
     11 OBD        74.2826   55.3245   34.9552 o2         1 CLA     -0.494600
     12 CGA        80.9367   56.8834   33.1381 c4         1 CLA      0.827000
     13 CGD        77.2414   55.4704   34.9989 c4         1 CLA      0.655300
     14 ND         75.5173   58.0643   38.5456 nm         1 CLA     -0.291600
     15 CED        78.7485   53.8934   35.9913 a3         1 CLA      0.005400
     16 CHA        76.8737   57.4669   36.4816 cs         1 CLA     -0.123800
     17 CHB        80.1446   60.3586   38.6384 aa         1 CLA     -0.291900
     18 CHC        77.0568   60.7188   42.4188 aa         1 CLA     -0.090400
     19 CHD        73.7354   58.1463   40.1563 aa         1 CLA     -0.052000
     20 CMA        81.5544   57.7119   37.2636 a3         1 CLA     -0.230700
     21 CMB        81.5706   62.2113   40.5811 a3         1 CLA     -0.180800
     22 CMC        74.6120   60.6743   44.4380 a3         1 CLA     -0.134000
     23 CMD        72.3485   56.1743   37.9726 a3         1 CLA     -0.141100
     24 C1         81.8209   54.9783   33.9989 a2         1 CLA      0.023000
     25 C1A        78.0921   58.1037   36.7609 ac         1 CLA     -0.015100
     26 C1B        79.5206   60.8461   39.8091 cr         1 CLA      0.054700
     27 C1C        75.8989   59.9783   42.2154 cn         1 CLA     -0.005600
     28 C1D        74.2651   57.6945   38.9222 ap         1 CLA     -0.047300
     29 O1A        80.7510   56.3283   32.0495 o2         1 CLA     -0.610800
     30 O1D        77.7590   55.3181   33.9055 o2         1 CLA     -0.558200
     31 C2         82.7232   54.4933   35.0830 c8         1 CLA     -0.325100
     32 C2A        79.3597   58.0100   35.8817 a1         1 CLA      0.098600
     33 C2B        80.1736   61.6988   40.7756 cb         1 CLA      0.088500
     34 C2C        74.7240   59.9611   43.0872 cb         1 CLA      0.053700
     35 C2D        73.7107   56.8285   37.9123 cb         1 CLA      0.058900
     36 O2A        81.5044   56.3970   34.1958 o1         1 CLA     -0.437200
     37 O2D        77.5280   54.6960   36.0694 o1         1 CLA     -0.357600
     38 C3         83.7394   53.6313   34.9219 c5         1 CLA      0.031200
     39 C3A        80.4949   58.6859   36.6983 a1         1 CLA      0.166800
     40 C3B        79.3238   61.7911   41.8787 cb         1 CLA      0.035000
     41 C3C        73.7002   59.2479   42.4450 cb         1 CLA     -0.089900
     42 C3D        74.6550   56.6934   36.9360 cb         1 CLA     -0.035900
     43 C4         83.5163   52.1662   34.8210 a3         1 CLA     -0.053300
     44 C4A        79.6519   59.3028   37.7582 ac         1 CLA      0.001800
     45 C4B        78.1034   60.9633   41.5306 cn         1 CLA     -0.020900
     46 C4C        74.3453   58.8778   41.1446 cr         1 CLA     -0.044400
     47 C4D        75.7845   57.5244   37.3453 c6         1 CLA     -0.046000
     48 C5         85.1377   54.2044   34.5075 a2         1 CLA     -0.070400
     49 C6         85.6408   55.4633   35.1910 a2         1 CLA      0.043900
     50 C7         85.8250   55.1890   36.6976 a2         1 CLA     -0.150000
     51 C8         86.1087   56.5692   37.5764 a1         1 CLA      0.064200
     52 C9         87.2769   57.5176   36.8724 a3         1 CLA     -0.259300
     53 C10        86.4502   56.2283   39.1371 a2         1 CLA     -0.071900
     54 C11        86.4193   57.3852   40.1498 a2         1 CLA      0.014500
     55 C12        86.4882   56.8804   41.5897 a2         1 CLA     -0.112100
     56 C13        86.1043   58.0000   42.5888 a1         1 CLA      0.089200
     57 C14        87.3931   58.9168   42.7252 a3         1 CLA     -0.239100
     58 C15        85.7565   57.4301   43.9785 a2         1 CLA     -0.102200
     59 C16        85.5564   58.4194   45.1261 a2         1 CLA      0.023900
     60 C17        85.0822   57.6696   46.4057 a2         1 CLA     -0.105700
     61 C18        85.1198   58.4447   47.7131 a1         1 CLA      0.206800
     62 C19        84.0484   59.5974   47.7784 a3         1 CLA     -0.280100
     63 C20        85.0218   57.4267   48.9017 a3         1 CLA     -0.280100
     64 NC         75.6014   59.3771   41.0452 nx         1 CLA     -0.309200
     65 MG         76.9054   59.2418   39.3970 mg         1 CLA      0.895000
     66 HMD3       72.2234   55.5216   38.8510 dc         1 CLA      0.064300
     67 HMD2       71.6303   57.0187   37.7682 dc         1 CLA      0.064300
     68 HMD1       72.2613   55.5836   37.0637 dc         1 CLA      0.064300
     69 HMC3       75.1617   60.0553   45.1812 dc         1 CLA      0.052100
     70 HMC2       75.1304   61.6678   44.3301 dc         1 CLA      0.052100
     71 HMC1       73.5942   60.7670   44.8347 dc         1 CLA      0.052100
     72 HMB3       81.4463   63.0959   39.9183 dc         1 CLA      0.063600
     73 HMB2       81.9818   62.5165   41.5547 dc         1 CLA      0.063600
     74 HMB1       82.2998   61.4841   40.2120 dc         1 CLA      0.063600
     75 HMA3       82.1051   57.3056   36.4202 dc         1 CLA      0.058300
     76 HMA2       82.2008   58.2436   37.9334 dc         1 CLA      0.058300
     77 HMA1       81.1089   56.9983   37.9386 dc         1 CLA      0.058300
     78 HED3       79.6736   54.4587   36.1785 dc         1 CLA      0.079300
     79 HED2       78.6718   53.1145   36.7359 dc         1 CLA      0.079300
     80 HED1       78.7971   53.3706   35.1112 dc         1 CLA      0.079300
     81 HBC3       71.3815   57.1440   43.7702 dc         1 CLA      0.016300
     82 HBC2       72.2948   56.8970   42.2392 dc         1 CLA      0.016300
     83 HBC1       73.2220   56.8358   43.6669 dc         1 CLA      0.016300
     84 HBB2       80.1571   63.8915   44.4671 da         1 CLA      0.183000
     85 HBB1       80.8280   64.0080   42.6818 da         1 CLA      0.183000
     86 HBA2       80.4478   58.8207   32.5325 dc         1 CLA      0.029400
     87 HBA1       81.3354   58.7466   34.0150 dc         1 CLA      0.029400
     88 HAC2       72.2242   59.3157   43.9194 dc         1 CLA      0.029300
     89 HAC1       71.6372   59.0094   42.2641 dc         1 CLA      0.029300
     90 HAA2       78.4171   58.0048   33.9289 dc         1 CLA      0.028700
     91 HAA1       79.1252   59.5619   34.2214 dc         1 CLA      0.028700
     92 H203       85.7505   56.6322   48.8425 dc         1 CLA      0.065600
     93 H202       85.2686   57.8602   49.8192 dc         1 CLA      0.065600
     94 H201       84.0820   57.0495   49.0062 dc         1 CLA      0.065600
     95 H193       83.9294   60.2776   46.9140 dc         1 CLA      0.065600
     96 H192       83.0455   59.1110   47.8100 dc         1 CLA      0.065600
     97 H191       84.1689   60.1939   48.7118 dc         1 CLA      0.065600
     98 H172       84.0660   57.1808   46.2672 dc         1 CLA      0.027600
     99 H171       85.7310   56.8124   46.5784 dc         1 CLA      0.027600
    100 H162       86.5103   58.8693   45.3232 dc         1 CLA      0.002900
    101 H161       84.8909   59.1868   44.7851 dc         1 CLA      0.002900
    102 H152       84.8639   56.8180   43.9288 dc         1 CLA      0.029100
    103 H151       86.6313   56.8595   44.3135 dc         1 CLA      0.029100
    104 H143       88.1099   58.2267   43.1633 dc         1 CLA      0.063600
    105 H142       87.7416   59.3405   41.7817 dc         1 CLA      0.063600
    106 H141       87.2868   59.7171   43.4131 dc         1 CLA      0.063600
    107 H122       85.7770   56.0535   41.6403 dc         1 CLA      0.032500
    108 H121       87.5046   56.5008   41.7046 dc         1 CLA      0.032500
    109 H112       87.1914   57.9906   39.9441 dc         1 CLA      0.006600
    110 H111       85.5612   57.9701   39.9930 dc         1 CLA      0.006600
    111 H102       85.6578   55.5537   39.5010 dc         1 CLA      0.024100
    112 H101       87.3635   55.6373   39.2075 dc         1 CLA      0.024100
    113 HHD        72.6801   57.9429   40.2925 da         1 CLA      0.174300
    114 HHC        77.1139   61.3157   43.3475 da         1 CLA      0.136800
    115 HHB        81.1975   60.6679   38.3586 da         1 CLA      0.138300
    116 HBD        76.3618   57.2199   34.4596 dc         1 CLA      0.107700
    117 HAB        78.8740   62.0146   44.0708 da         1 CLA      0.155200
    118 H93        88.1526   56.9280   36.6480 dc         1 CLA      0.069500
    119 H92        86.9371   57.8886   35.9138 dc         1 CLA      0.069500
    120 H91        87.5645   58.2828   37.5474 dc         1 CLA      0.069500
    121 H8         85.1551   57.1636   37.6065 dc         1 CLA      0.029300
    122 H72        84.8858   54.8008   37.0483 dc         1 CLA      0.044400
    123 H71        86.5029   54.3146   36.8243 dc         1 CLA      0.044400
    124 H62        86.5984   55.6295   34.7257 dc         1 CLA      0.015600
    125 H61        85.0114   56.3456   35.0315 dc         1 CLA      0.015600
    126 H52        85.8693   53.4119   34.6178 dc         1 CLA      0.033200
    127 H51        85.0263   54.3340   33.4610 dc         1 CLA      0.033200
    128 H43        82.4845   51.9907   34.4885 dc         1 CLA      0.037000
    129 H42        84.0641   51.7405   33.9898 dc         1 CLA      0.037000
    130 H41        83.8259   51.7536   35.8041 dc         1 CLA      0.037000
    131 H3A        81.0037   59.5097   36.1683 dc         1 CLA      0.041100
    132 H2A        79.4145   56.9579   35.7931 dc         1 CLA      0.083100
    133 H2         82.5760   54.8781   36.1215 da         1 CLA      0.180900
    134 H18        86.0750   58.8670   47.7984 dc         1 CLA     -0.003900
    135 H13        85.2921   58.6073   42.2823 dc         1 CLA      0.019700
    136 H12        80.9511   54.3730   33.9282 dc         1 CLA      0.120400
    137 H11        82.3809   54.8915   33.0553 dc         1 CLA      0.120400
    138 C1         68.8852   61.9774   49.2974 Z1         2 LUT      0.509236
    139 C2         67.5681   61.9154   50.1446 Z2         2 LUT     -0.434695
    140 C3         67.0187   63.1997   50.5787 Z3         2 LUT      0.437453
    141 O3         67.3271   63.4191   51.9876 S1         2 LUT     -0.547129
    142 C4         67.5415   64.3970   49.7067 Z4         2 LUT     -0.468603
    143 C5         67.9966   64.0873   48.3068 Z5         2 LUT      0.279246
    144 C6         68.6784   62.9380   48.0473 Z6         2 LUT     -0.305473
    145 C7         69.0370   62.5634   46.6057 Z7         2 LUT      0.069402
    146 C8         70.2390   62.8793   46.0550 Z8         2 LUT     -0.191631
    147 C9         70.7921   62.5091   44.7850 Z9         2 LUT      0.196698
    148 C10        71.9698   63.0695   44.3399 Y1         2 LUT     -0.208611
    149 C11        72.6940   63.1052   43.1242 Y2         2 LUT      0.030784
    150 C12        73.8564   63.8598   43.0981 Y3         2 LUT     -0.220316
    151 C13        74.8807   63.9599   42.0042 Y4         2 LUT      0.215937
    152 C14        76.0620   64.6321   42.2649 Y5         2 LUT     -0.185793
    153 C15        77.2407   64.6733   41.3522 Y6         2 LUT     -0.057835
    154 C16        69.2749   60.5438   48.8493 Y7         2 LUT     -0.405615
    155 C17        70.1318   62.4379   50.1622 Y7         2 LUT     -0.405615
    156 C18        67.5779   65.0989   47.2982 Y9         2 LUT     -0.369639
    157 C19        69.9762   61.5859   44.0240 W1         2 LUT     -0.333362
    158 C20        74.5164   63.3855   40.6605 W2         2 LUT     -0.323439
    159 C21        88.5095   65.2226   34.7761 Z1         2 LUT      0.406104
    160 C22        89.0939   64.4425   33.6084 Z2         2 LUT     -0.404965
    161 C23        89.0807   65.0863   32.2155 Z3         2 LUT      0.391255
    162 O23        89.5373   64.0673   31.3555 S1         2 LUT     -0.528210
    163 C24        87.7303   65.9190   32.0432 W6         2 LUT     -0.258361
    164 C25        86.7565   66.0701   33.0089 Z5         2 LUT      0.133546
    165 C26        86.9576   65.5946   34.4397 W8         2 LUT     -0.147008
    166 C27        86.3075   66.5021   35.5202 Z7         2 LUT      0.023843
    167 C28        85.1612   66.2080   36.2452 Z8         2 LUT     -0.216987
    168 C29        84.5329   67.0520   37.2882 Z9         2 LUT      0.206524
    169 C30        83.4863   66.4740   38.0264 Y1         2 LUT     -0.215556
    170 C31        82.7255   66.9055   39.1477 Y2         2 LUT      0.025142
    171 C32        81.5347   66.2014   39.4315 Y3         2 LUT     -0.212209
    172 C33        80.5906   66.2524   40.5766 Y4         2 LUT      0.240937
    173 C34        79.5263   65.4996   40.5300 Y5         2 LUT     -0.218862
    174 C35        78.4091   65.4762   41.4668 Y6         2 LUT     -0.023547
    175 C36        89.5645   66.4371   34.9477 Y7         2 LUT     -0.393485
    176 C37        88.6514   64.3461   36.0771 Y7         2 LUT     -0.393485
    177 C38        85.5299   66.9198   32.7403 Y9         2 LUT     -0.387526
    178 C39        85.0867   68.3880   37.7102 W1         2 LUT     -0.322618
    179 C40        80.9046   67.0364   41.8133 W2         2 LUT     -0.358472
    180 H403       81.8984   67.4446   41.9058 R7         2 LUT      0.097720
    181 H402       80.1953   67.8001   42.0136 R7         2 LUT      0.097720
    182 H401       80.8857   66.4273   42.7539 R7         2 LUT      0.097720
    183 H393       86.0310   68.2081   38.1965 R4         2 LUT      0.082505
    184 H392       85.2518   69.0858   36.8712 R4         2 LUT      0.082505
    185 H391       84.4445   68.9662   38.3666 R4         2 LUT      0.082505
    186 H383       85.6316   68.0156   33.0036 R1         2 LUT      0.104030
    187 H382       85.3663   66.9644   31.6959 R1         2 LUT      0.104030
    188 H381       84.6680   66.4761   33.2655 R1         2 LUT      0.104030
    189 H373       88.0993   63.4495   35.8823 T4         2 LUT      0.089537
    190 H372       89.6433   63.9859   36.2881 T4         2 LUT      0.089537
    191 H371       88.2285   64.8795   36.9351 T4         2 LUT      0.089537
    192 H363       90.6033   66.0699   34.7629 T4         2 LUT      0.089537
    193 H362       89.4349   67.2656   34.3334 T4         2 LUT      0.089537
    194 H361       89.4376   66.7726   35.9192 T4         2 LUT      0.089537
    195 H222       90.0804   63.9856   33.7620 U2         2 LUT      0.127376
    196 H221       88.3979   63.6434   33.5272 U2         2 LUT      0.127376
    197 H203       75.0764   63.9116   39.9509 R7         2 LUT      0.087068
    198 H202       74.8408   62.3363   40.5067 R7         2 LUT      0.087068
    199 H201       73.4460   63.3905   40.4465 R7         2 LUT      0.087068
    200 H193       70.4582   61.2161   43.1807 R4         2 LUT      0.089716
    201 H192       69.5726   60.6993   44.6052 R4         2 LUT      0.089716
    202 H191       69.1385   62.0674   43.6321 R4         2 LUT      0.089716
    203 H183       66.5526   65.1462   47.2063 R1         2 LUT      0.094572
    204 H182       67.9252   66.1242   47.5753 R1         2 LUT      0.094572
    205 H181       68.0736   64.9526   46.3065 R1         2 LUT      0.094572
    206 H173       69.7966   63.3041   50.6979 T4         2 LUT      0.093752
    207 H172       70.4185   61.6470   50.8082 T4         2 LUT      0.093752
    208 H171       70.9312   62.7624   49.5852 T4         2 LUT      0.093752
    209 H163       69.3199   59.8113   49.6180 T4         2 LUT      0.093752
    210 H162       68.6420   60.1545   48.0609 T4         2 LUT      0.093752
    211 H161       70.2123   60.5637   48.3687 T4         2 LUT      0.093752
    212 HO3        66.6682   63.0683   52.6439 Q1         2 LUT      0.300121
    213 H8         70.8624   63.4146   46.6900 U7         2 LUT      0.080784
    214 H7         68.1927   62.2226   45.9685 U6         2 LUT      0.042190
    215 H42        66.7976   65.1793   49.7453 U5         2 LUT      0.145166
    216 H41        68.3251   64.8419   50.3122 U5         2 LUT      0.145166
    217 H35        78.3563   66.1215   42.3272 T3         2 LUT      0.077919
    218 H34        79.4091   64.8716   39.6124 T2         2 LUT      0.073626
    219 H32        81.2492   65.4686   38.6882 T1         2 LUT      0.092510
    220 H31        82.9674   67.6778   39.7684 U9         2 LUT      0.070048
    221 H30        83.2109   65.4916   37.6307 U8         2 LUT      0.085442
    222 H3         65.8741   63.1113   50.4097 U3         2 LUT     -0.031596
    223 H28        84.7638   65.2403   36.0553 U7         2 LUT      0.084728
    224 H27        86.6983   67.5047   35.5754 U6         2 LUT      0.087291
    225 H26        86.3898   64.6595   34.5186 Q6         2 LUT      0.075325
    226 H24        87.3943   66.3781   31.0740 Q5         2 LUT      0.094482
    227 H23        89.9211   65.8080   32.2674 U3         2 LUT     -0.024869
    228 H22        66.7289   61.3115   49.7831 U2         2 LUT      0.127376
    229 H21        67.6917   61.3356   51.0412 U2         2 LUT      0.127376
    230 H15        77.2401   64.0704   40.4113 T3         2 LUT      0.093200
    231 H14        76.0972   65.0873   43.2266 T2         2 LUT      0.068865
    232 H12        74.1508   64.4221   43.9844 T1         2 LUT      0.095507
    233 H11        72.2228   62.5238   42.2999 U9         2 LUT      0.068930
    234 H10        72.5105   63.5638   45.0953 U8         2 LUT      0.083911
    235 H1         89.4606   64.3787   30.4271 Q1         2 LUT      0.297311
@<TRIPOS>BOND
    1     6     1 1
    2     7     2 1
    3     8     3 1
    4     9     4 1
    5    11     4 1
    6    12     6 1
    7    13     9 1
    8    16     9 1
    9    25     5 1
   10    25    16 1
   11    26    10 1
   12    26    17 1
   13    27    18 1
   14    28    14 1
   15    28    19 1
   16    29    12 1
   17    30    13 1
   18    31    24 1
   19    32     1 1
   20    32    25 1
   21    33    21 1
   22    33    26 1
   23    34    22 1
   24    34    27 1
   25    35    23 1
   26    35    28 1
   27    36    12 1
   28    36    24 1
   29    37    13 1
   30    37    15 1
   31    38    31 1
   32    39    20 1
   33    39    32 1
   34    40     2 1
   35    40    33 1
   36    41     3 1
   37    41    34 1
   38    42     4 1
   39    42    35 1
   40    43    38 1
   41    44     5 1
   42    44    17 1
   43    44    39 1
   44    45    10 1
   45    45    18 1
   46    45    40 1
   47    46    19 1
   48    46    41 1
   49    47    14 1
   50    47    16 1
   51    47    42 1
   52    48    38 1
   53    49    48 1
   54    50    49 1
   55    51    50 1
   56    52    51 1
   57    53    51 1
   58    54    53 1
   59    55    54 1
   60    56    55 1
   61    57    56 1
   62    58    56 1
   63    59    58 1
   64    60    59 1
   65    61    60 1
   66    62    61 1
   67    63    61 1
   68    64    27 1
   69    64    46 1
   70    65     5 1
   71    65    10 1
   72    65    64 1
   73    65    14 1
   74    66    23 1
   75    67    23 1
   76    68    23 1
   77    69    22 1
   78    70    22 1
   79    71    22 1
   80    72    21 1
   81    73    21 1
   82    74    21 1
   83    75    20 1
   84    76    20 1
   85    77    20 1
   86    78    15 1
   87    79    15 1
   88    80    15 1
   89    81     8 1
   90    82     8 1
   91    83     8 1
   92    84     7 1
   93    85     7 1
   94    86     6 1
   95    87     6 1
   96    88     3 1
   97    89     3 1
   98    90     1 1
   99    91     1 1
  100    92    63 1
  101    93    63 1
  102    94    63 1
  103    95    62 1
  104    96    62 1
  105    97    62 1
  106    98    60 1
  107    99    60 1
  108   100    59 1
  109   101    59 1
  110   102    58 1
  111   103    58 1
  112   104    57 1
  113   105    57 1
  114   106    57 1
  115   107    55 1
  116   108    55 1
  117   109    54 1
  118   110    54 1
  119   111    53 1
  120   112    53 1
  121   113    19 1
  122   114    18 1
  123   115    17 1
  124   116     9 1
  125   117     2 1
  126   118    52 1
  127   119    52 1
  128   120    52 1
  129   121    51 1
  130   122    50 1
  131   123    50 1
  132   124    49 1
  133   125    49 1
  134   126    48 1
  135   127    48 1
  136   128    43 1
  137   129    43 1
  138   130    43 1
  139   131    39 1
  140   132    32 1
  141   133    31 1
  142   134    61 1
  143   135    56 1
  144   136    24 1
  145   137    24 1
  146   139   138 1
  147   140   139 1
  148   141   140 1
  149   142   140 1
  150   143   142 1
  151   144   138 1
  152   144   143 1
  153   145   144 1
  154   146   145 1
  155   147   146 1
  156   148   147 1
  157   149   148 1
  158   150   149 1
  159   151   150 1
  160   152   151 1
  161   153   152 1
  162   154   138 1
  163   155   138 1
  164   156   143 1
  165   157   147 1
  166   158   151 1
  167   160   159 1
  168   161   160 1
  169   162   161 1
  170   163   161 1
  171   164   163 1
  172   165   159 1
  173   165   164 1
  174   166   165 1
  175   167   166 1
  176   168   167 1
  177   169   168 1
  178   170   169 1
  179   171   170 1
  180   172   171 1
  181   173   172 1
  182   174   153 1
  183   174   173 1
  184   175   159 1
  185   176   159 1
  186   177   164 1
  187   178   168 1
  188   179   172 1
  189   180   179 1
  190   181   179 1
  191   182   179 1
  192   183   178 1
  193   184   178 1
  194   185   178 1
  195   186   177 1
  196   187   177 1
  197   188   177 1
  198   189   176 1
  199   190   176 1
  200   191   176 1
  201   192   175 1
  202   193   175 1
  203   194   175 1
  204   195   160 1
  205   196   160 1
  206   197   158 1
  207   198   158 1
  208   199   158 1
  209   200   157 1
  210   201   157 1
  211   202   157 1
  212   203   156 1
  213   204   156 1
  214   205   156 1
  215   206   155 1
  216   207   155 1
  217   208   155 1
  218   209   154 1
  219   210   154 1
  220   211   154 1
  221   212   141 1
  222   213   146 1
  223   214   145 1
  224   215   142 1
  225   216   142 1
  226   217   174 1
  227   218   173 1
  228   219   171 1
  229   220   170 1
  230   221   169 1
  231   222   140 1
  232   223   167 1
  233   224   166 1
  234   225   165 1
  235   226   163 1
  236   227   161 1
  237   228   139 1
  238   229   139 1
  239   230   153 1
  240   231   152 1
  241   232   150 1
  242   233   149 1
  243   234   148 1
  244   235   162 1
  245   65    153 1
  246   65    174 1
@<TRIPOS>SUBSTRUCTURE
      1 CLA               1 ****               0 ****  **** 
      2 LUT             138 ****               0 ****  **** 
