@<TRIPOS>MOLECULE
Cpptraj generated mol2 file.
  235   246     2     0     0
SMALL
USER_CHARGES


@<TRIPOS>ATOM
      1 CAA        77.1438   57.5293   35.3488 a2         1 CLA     -0.055900
      2 CAB        77.2076   61.7260   44.1335 c8         1 CLA     -0.148500
      3 CAC        70.6031   57.4091   44.0519 a2         1 CLA     -0.012600
      4 CAD        73.4746   54.4821   36.9419 ck         1 CLA      0.398800
      5 NA         76.4168   57.9881   38.8204 ns         1 CLA     -0.225500
      6 CBA        78.4027   57.6311   34.3018 a2         1 CLA     -0.135000
      7 CBB        76.8079   61.2814   45.3393 c0         1 CLA     -0.395200
      8 CBC        70.6475   55.8732   44.2161 a3         1 CLA     -0.037700
      9 CBD        74.9498   55.0866   36.6338 a1         1 CLA     -0.053900
     10 NB         76.2576   59.6161   41.2340 nm         1 CLA     -0.295700
     11 OBD        72.9897   53.5208   36.3286 o2         1 CLA     -0.494600
     12 CGA        79.2847   56.3725   33.9913 c4         1 CLA      0.827000
     13 CGD        75.9198   54.0064   36.7683 c4         1 CLA      0.655300
     14 ND         73.6108   57.0119   39.4067 nm         1 CLA     -0.291600
     15 CED        77.0365   52.5299   38.2634 a3         1 CLA      0.005400
     16 CHA        75.1644   56.2807   37.6480 cs         1 CLA     -0.123800
     17 CHB        78.1147   59.5128   39.6450 aa         1 CLA     -0.291900
     18 CHC        74.8059   60.0329   43.1757 aa         1 CLA     -0.090400
     19 CHD        71.8378   56.9078   41.0627 aa         1 CLA     -0.052000
     20 CMA        79.8889   57.7279   37.7273 a3         1 CLA     -0.230700
     21 CMB        79.4857   61.3850   41.7508 a3         1 CLA     -0.180800
     22 CMC        72.6519   59.4564   45.4787 a3         1 CLA     -0.134000
     23 CMD        70.8536   54.5043   39.1241 a3         1 CLA     -0.141100
     24 C1         80.5228   54.6358   35.0597 a2         1 CLA      0.023000
     25 C1A        76.2900   57.0817   37.7749 ac         1 CLA     -0.015100
     26 C1B        77.4993   60.0511   40.8072 cr         1 CLA      0.054700
     27 C1C        73.6779   59.2541   42.9752 cn         1 CLA     -0.005600
     28 C1D        72.4274   56.4962   39.8183 ap         1 CLA     -0.047300
     29 O1A        79.7313   56.2025   32.8333 o2         1 CLA     -0.610800
     30 O1D        76.8686   53.7542   35.9982 o2         1 CLA     -0.558200
     31 C2         81.2019   54.5005   36.3729 c8         1 CLA     -0.325100
     32 C2A        77.5129   57.1095   36.8434 a1         1 CLA      0.098600
     33 C2B        78.0337   60.9289   41.8316 cb         1 CLA      0.088500
     34 C2C        72.6189   59.0149   43.9584 cb         1 CLA      0.053700
     35 C2D        72.0223   55.3930   38.9501 cb         1 CLA      0.058900
     36 O2A        79.5897   55.7491   35.0621 o1         1 CLA     -0.437200
     37 O2D        75.8978   53.4137   38.0228 o1         1 CLA     -0.357600
     38 C3         82.0290   53.5419   36.8815 c5         1 CLA      0.031200
     39 C3A        78.4055   58.2476   37.5273 a1         1 CLA      0.166800
     40 C3B        77.0499   61.1107   42.7935 cb         1 CLA      0.035000
     41 C3C        71.7797   58.0730   43.4260 cb         1 CLA     -0.089900
     42 C3D        73.0099   55.2904   38.0390 cb         1 CLA     -0.035900
     43 C4         81.3582   52.3427   37.4203 a3         1 CLA     -0.053300
     44 C4A        77.6414   58.5696   38.7860 ac         1 CLA      0.001800
     45 C4B        75.9819   60.2299   42.4403 cn         1 CLA     -0.020900
     46 C4C        72.3258   57.7781   42.1036 cr         1 CLA     -0.044400
     47 C4D        73.9554   56.3182   38.3508 c6         1 CLA     -0.046000
     48 C5         83.5297   53.4008   36.4622 a2         1 CLA     -0.070400
     49 C6         84.1342   54.8253   36.4700 a2         1 CLA      0.043900
     50 C7         84.1049   55.4379   37.8800 a2         1 CLA     -0.150000
     51 C8         84.3022   56.9711   37.9899 a1         1 CLA      0.064200
     52 C9         85.4575   57.5370   37.1543 a3         1 CLA     -0.259300
     53 C10        84.2742   57.4576   39.3983 a2         1 CLA     -0.071900
     54 C11        82.9504   57.3669   40.2380 a2         1 CLA      0.014500
     55 C12        83.0243   58.2516   41.4864 a2         1 CLA     -0.112100
     56 C13        83.8336   57.7091   42.6407 a1         1 CLA      0.089200
     57 C14        83.2042   56.4957   43.2837 a3         1 CLA     -0.239100
     58 C15        84.1587   58.8174   43.6416 a2         1 CLA     -0.102200
     59 C16        82.9012   59.5333   44.2323 a2         1 CLA      0.023900
     60 C17        83.3261   60.4833   45.3992 a2         1 CLA     -0.105700
     61 C18        82.1838   60.8453   46.3841 a1         1 CLA      0.206800
     62 C19        82.6453   61.6992   47.5901 a3         1 CLA     -0.280100
     63 C20        81.0720   61.6354   45.6668 a3         1 CLA     -0.280100
     64 NC         73.5008   58.4773   41.9107 nx         1 CLA     -0.309200
     65 MG         74.8678   58.3739   40.2523 mg         1 CLA      0.895000
     66 HMD3       71.1369   53.4946   39.1197 dc         1 CLA      0.064300
     67 HMD2       70.2115   54.6889   39.9864 dc         1 CLA      0.064300
     68 HMD1       70.2580   54.5409   38.1659 dc         1 CLA      0.064300
     69 HMC3       72.0907   58.7875   46.0829 dc         1 CLA      0.052100
     70 HMC2       73.6073   59.2733   45.8542 dc         1 CLA      0.052100
     71 HMC1       72.4331   60.5399   45.6039 dc         1 CLA      0.052100
     72 HMB3       79.5667   62.3858   42.2635 dc         1 CLA      0.063600
     73 HMB2       80.1926   60.7366   42.2694 dc         1 CLA      0.063600
     74 HMB1       79.7076   61.4545   40.7546 dc         1 CLA      0.063600
     75 HMA3       80.3329   57.5336   36.7356 dc         1 CLA      0.058300
     76 HMA2       80.4536   58.5195   38.2267 dc         1 CLA      0.058300
     77 HMA1       79.8323   56.8215   38.3356 dc         1 CLA      0.058300
     78 HED3       76.7875   52.2626   39.2700 dc         1 CLA      0.079300
     79 HED2       76.8594   51.6821   37.5677 dc         1 CLA      0.079300
     80 HED1       78.0346   52.9021   38.2195 dc         1 CLA      0.079300
     81 HBC3       71.6484   55.5058   44.3581 dc         1 CLA      0.016300
     82 HBC2       70.0555   55.4544   45.0361 dc         1 CLA      0.016300
     83 HBC1       70.2546   55.5063   43.2646 dc         1 CLA      0.016300
     84 HBB2       77.1223   61.7954   46.2768 da         1 CLA      0.183000
     85 HBB1       76.3218   60.2478   45.3956 da         1 CLA      0.183000
     86 HBA2       77.9796   58.0529   33.3754 dc         1 CLA      0.029400
     87 HBA1       78.9803   58.5265   34.5843 dc         1 CLA      0.029400
     88 HAC2       70.5526   57.7428   45.0774 dc         1 CLA      0.029300
     89 HAC1       69.6101   57.7014   43.5621 dc         1 CLA      0.029300
     90 HAA2       76.5152   56.6515   35.0106 dc         1 CLA      0.028700
     91 HAA1       76.4929   58.4225   35.3742 dc         1 CLA      0.028700
     92 H203       80.3778   62.1646   46.3274 dc         1 CLA      0.065600
     93 H202       81.4552   62.2969   44.9168 dc         1 CLA      0.065600
     94 H201       80.5340   60.8744   45.1213 dc         1 CLA      0.065600
     95 H193       83.1878   62.5739   47.1848 dc         1 CLA      0.065600
     96 H192       81.7575   62.1120   48.1407 dc         1 CLA      0.065600
     97 H191       83.2830   61.1083   48.2775 dc         1 CLA      0.065600
     98 H172       84.0583   59.8914   46.0064 dc         1 CLA      0.027600
     99 H171       83.9012   61.3868   45.0456 dc         1 CLA      0.027600
    100 H162       82.5535   60.1651   43.4057 dc         1 CLA      0.002900
    101 H161       82.2264   58.8511   44.6740 dc         1 CLA      0.002900
    102 H152       84.7856   58.4446   44.3943 dc         1 CLA      0.029100
    103 H151       84.8100   59.4428   43.0774 dc         1 CLA      0.029100
    104 H143       82.1375   56.6498   43.5644 dc         1 CLA      0.063600
    105 H142       83.2924   55.6390   42.6361 dc         1 CLA      0.063600
    106 H141       83.7166   56.2757   44.2762 dc         1 CLA      0.063600
    107 H122       83.5860   59.1789   41.2070 dc         1 CLA      0.032500
    108 H121       82.0161   58.3778   41.8713 dc         1 CLA      0.032500
    109 H112       82.0604   57.7151   39.7174 dc         1 CLA      0.006600
    110 H111       82.8097   56.3490   40.5518 dc         1 CLA      0.006600
    111 H102       85.0107   56.9131   39.9849 dc         1 CLA      0.024100
    112 H101       84.6201   58.4910   39.4202 dc         1 CLA      0.024100
    113 HHD        70.8699   56.4223   41.2445 da         1 CLA      0.174300
    114 HHC        74.7311   60.7098   44.0328 da         1 CLA      0.136800
    115 HHB        79.0766   59.9803   39.4618 da         1 CLA      0.138300
    116 HBD        75.0056   55.4025   35.6452 dc         1 CLA      0.107700
    117 HAB        77.7353   62.7258   44.0933 da         1 CLA      0.155200
    118 H93        86.4045   57.0536   37.4876 dc         1 CLA      0.069500
    119 H92        85.1337   57.4477   36.1308 dc         1 CLA      0.069500
    120 H91        85.5652   58.5305   37.3504 dc         1 CLA      0.069500
    121 H8         83.3483   57.3933   37.5526 dc         1 CLA      0.029300
    122 H72        83.2011   55.2791   38.4247 dc         1 CLA      0.044400
    123 H71        84.9588   54.9312   38.3172 dc         1 CLA      0.044400
    124 H62        85.1562   54.7466   36.1450 dc         1 CLA      0.015600
    125 H61        83.6094   55.5866   35.8497 dc         1 CLA      0.015600
    126 H52        84.0609   52.7419   37.1895 dc         1 CLA      0.033200
    127 H51        83.5279   52.9457   35.4538 dc         1 CLA      0.033200
    128 H43        80.2971   52.3039   37.3329 dc         1 CLA      0.037000
    129 H42        81.8058   51.4844   36.8926 dc         1 CLA      0.037000
    130 H41        81.6639   52.3219   38.5024 dc         1 CLA      0.037000
    131 H3A        78.4380   59.1661   36.8319 dc         1 CLA      0.041100
    132 H2A        77.9551   56.1280   36.9313 dc         1 CLA      0.083100
    133 H2         81.1122   55.3779   37.0211 da         1 CLA      0.180900
    134 H18        81.8480   59.9154   46.9336 dc         1 CLA     -0.003900
    135 H13        84.8164   57.3481   42.2378 dc         1 CLA      0.019700
    136 H12        80.0526   53.7579   34.7244 dc         1 CLA      0.120400
    137 H11        81.3098   54.7556   34.2794 dc         1 CLA      0.120400
    138 C1         67.8580   60.9737   51.1329 Z1         2 LUT      0.509236
    139 C2         66.5940   60.8689   52.0049 Z2         2 LUT     -0.434695
    140 C3         65.7581   62.1698   51.9804 Z3         2 LUT      0.437453
    141 O3         65.4301   62.6320   53.2969 S1         2 LUT     -0.547129
    142 C4         66.3529   63.3476   51.2730 Z4         2 LUT     -0.468603
    143 C5         66.8818   62.9648   49.9543 Z5         2 LUT      0.279246
    144 C6         67.6946   61.9102   49.8587 Z6         2 LUT     -0.305473
    145 C7         67.9038   61.2749   48.5494 Z7         2 LUT      0.069402
    146 C8         68.7947   61.8177   47.6994 Z8         2 LUT     -0.191631
    147 C9         69.4028   61.3570   46.3868 Z9         2 LUT      0.196698
    148 C10        70.2888   62.1898   45.8165 Y1         2 LUT     -0.208611
    149 C11        70.7969   62.1127   44.4130 Y2         2 LUT      0.030784
    150 C12        71.9116   62.8055   44.0126 Y3         2 LUT     -0.220316
    151 C13        72.7092   62.7048   42.8119 Y4         2 LUT      0.215937
    152 C14        73.9067   63.3763   42.9748 Y5         2 LUT     -0.185793
    153 C15        74.9607   63.3350   42.0030 Y6         2 LUT     -0.057835
    154 C16        68.3045   59.5139   50.9024 Y7         2 LUT     -0.405615
    155 C17        68.8683   61.7500   52.0564 Y7         2 LUT     -0.405615
    156 C18        66.0401   63.6689   48.8819 Y9         2 LUT     -0.369639
    157 C19        68.7646   60.1794   45.6296 W1         2 LUT     -0.333362
    158 C20        72.1354   61.9381   41.5940 W2         2 LUT     -0.323439
    159 C21        85.9669   64.6066   35.4317 Z1         2 LUT      0.406104
    160 C22        86.6877   64.0244   34.2172 Z2         2 LUT     -0.404965
    161 C23        87.0224   65.0442   33.1175 Z3         2 LUT      0.391255
    162 O23        87.3883   64.1882   32.0481 S1         2 LUT     -0.528210
    163 C24        85.8713   66.0581   32.9493 W6         2 LUT     -0.258361
    164 C25        84.7337   66.0744   33.6432 Z5         2 LUT      0.133546
    165 C26        84.6716   65.1623   34.9769 W8         2 LUT     -0.147008
    166 C27        83.8955   65.8801   36.1209 Z7         2 LUT      0.023843
    167 C28        82.8019   65.3740   36.7792 Z8         2 LUT     -0.216987
    168 C29        82.2236   65.7864   38.1265 Z9         2 LUT      0.206524
    169 C30        81.1776   65.1376   38.6040 Y1         2 LUT     -0.215556
    170 C31        80.3960   65.2320   39.8330 Y2         2 LUT      0.025142
    171 C32        79.2158   64.5238   40.1576 Y3         2 LUT     -0.212209
    172 C33        78.3190   64.8158   41.2155 Y4         2 LUT      0.240937
    173 C34        77.1466   64.1096   41.3183 Y5         2 LUT     -0.218862
    174 C35        76.0386   64.2132   42.1267 Y6         2 LUT     -0.023547
    175 C36        86.8852   65.6027   36.0916 Y7         2 LUT     -0.393485
    176 C37        85.8123   63.4350   36.4671 Y7         2 LUT     -0.393485
    177 C38        83.7237   67.2057   33.4341 Y9         2 LUT     -0.387526
    178 C39        82.9886   66.7679   39.0028 W1         2 LUT     -0.322618
    179 C40        78.5078   66.0637   42.0803 W2         2 LUT     -0.358472
    180 H403       78.2487   65.8631   43.1318 R7         2 LUT      0.097720
    181 H402       79.4745   66.4597   42.0706 R7         2 LUT      0.097720
    182 H401       77.7442   66.8845   41.8435 R7         2 LUT      0.097720
    183 H393       84.0554   66.7345   38.9529 R4         2 LUT      0.082505
    184 H392       82.8324   67.7576   38.5059 R4         2 LUT      0.082505
    185 H391       82.6866   66.9492   40.0158 R4         2 LUT      0.082505
    186 H383       84.1274   67.9879   32.7217 R1         2 LUT      0.104030
    187 H382       82.7605   66.8781   32.9747 R1         2 LUT      0.104030
    188 H381       83.6264   67.7718   34.3997 R1         2 LUT      0.104030
    189 H373       86.7517   63.0378   36.8203 T4         2 LUT      0.089537
    190 H372       85.3204   63.7086   37.3593 T4         2 LUT      0.089537
    191 H371       85.2637   62.6025   36.1146 T4         2 LUT      0.089537
    192 H363       87.2137   66.4724   35.5015 T4         2 LUT      0.089537
    193 H362       86.4370   65.8616   37.0587 T4         2 LUT      0.089537
    194 H361       87.8022   65.0423   36.3128 T4         2 LUT      0.089537
    195 H222       87.5865   63.4921   34.4575 U2         2 LUT      0.127376
    196 H221       86.1254   63.1817   33.7445 U2         2 LUT      0.127376
    197 H203       71.3038   62.6180   41.2931 R7         2 LUT      0.087068
    198 H202       72.7343   61.6498   40.6679 R7         2 LUT      0.087068
    199 H201       71.6672   60.9941   41.8965 R7         2 LUT      0.087068
    200 H193       68.7235   59.2896   46.2944 R4         2 LUT      0.089716
    201 H192       67.7514   60.4429   45.2502 R4         2 LUT      0.089716
    202 H191       69.2532   59.7508   44.7211 R4         2 LUT      0.089716
    203 H183       66.3165   63.3430   47.8699 R1         2 LUT      0.094572
    204 H182       64.9603   63.4964   48.9897 R1         2 LUT      0.094572
    205 H181       66.1765   64.7291   48.7753 R1         2 LUT      0.094572
    206 H173       68.7926   61.2938   53.0764 T4         2 LUT      0.093752
    207 H172       69.9179   61.6281   51.6931 T4         2 LUT      0.093752
    208 H171       68.7466   62.8276   52.0519 T4         2 LUT      0.093752
    209 H163       68.6216   59.1284   51.8366 T4         2 LUT      0.093752
    210 H162       67.4554   58.8475   50.7197 T4         2 LUT      0.093752
    211 H161       69.1154   59.4803   50.1536 T4         2 LUT      0.093752
    212 HO3        64.7883   62.0850   53.7672 Q1         2 LUT      0.300121
    213 H8         69.2385   62.7419   48.0520 U7         2 LUT      0.080784
    214 H7         67.5125   60.2979   48.2313 U6         2 LUT      0.042190
    215 H42        65.5604   64.0890   51.1006 U5         2 LUT      0.145166
    216 H41        67.0576   63.8469   51.9710 U5         2 LUT      0.145166
    217 H35        76.1530   65.0793   42.8092 T3         2 LUT      0.077919
    218 H34        76.9416   63.4810   40.4907 T2         2 LUT      0.073626
    219 H32        78.8842   63.8491   39.4008 T1         2 LUT      0.092510
    220 H31        80.8225   65.9068   40.5260 U9         2 LUT      0.070048
    221 H30        80.6775   64.4152   37.9644 U8         2 LUT      0.085442
    222 H3         64.8735   61.8468   51.4336 U3         2 LUT     -0.031596
    223 H28        82.3299   64.4782   36.3559 U7         2 LUT      0.084728
    224 H27        84.2744   66.7325   36.6124 U6         2 LUT      0.087291
    225 H26        84.0409   64.3380   34.7252 Q6         2 LUT      0.075325
    226 H24        86.0596   66.7319   32.0562 Q5         2 LUT      0.094482
    227 H23        87.8211   65.7198   33.4356 U3         2 LUT     -0.024869
    228 H22        66.0381   60.1944   51.3744 U2         2 LUT      0.127376
    229 H21        66.7434   60.4969   52.9903 U2         2 LUT      0.127376
    230 H15        74.9956   62.5960   41.1867 T3         2 LUT      0.093200
    231 H14        74.0118   63.9509   43.9066 T2         2 LUT      0.068865
    232 H12        72.1779   63.5502   44.7564 T1         2 LUT      0.095507
    233 H11        70.3084   61.3066   43.7796 U9         2 LUT      0.068930
    234 H10        70.6949   63.0577   46.3697 U8         2 LUT      0.083911
    235 H1         87.7216   64.6326   31.2585 Q1         2 LUT      0.297311
@<TRIPOS>BOND
    1     6     1 1
    2     7     2 1
    3     8     3 1
    4     9     4 1
    5    11     4 1
    6    12     6 1
    7    13     9 1
    8    16     9 1
    9    25     5 1
   10    25    16 1
   11    26    10 1
   12    26    17 1
   13    27    18 1
   14    28    14 1
   15    28    19 1
   16    29    12 1
   17    30    13 1
   18    31    24 1
   19    32     1 1
   20    32    25 1
   21    33    21 1
   22    33    26 1
   23    34    22 1
   24    34    27 1
   25    35    23 1
   26    35    28 1
   27    36    12 1
   28    36    24 1
   29    37    13 1
   30    37    15 1
   31    38    31 1
   32    39    20 1
   33    39    32 1
   34    40     2 1
   35    40    33 1
   36    41     3 1
   37    41    34 1
   38    42     4 1
   39    42    35 1
   40    43    38 1
   41    44     5 1
   42    44    17 1
   43    44    39 1
   44    45    10 1
   45    45    18 1
   46    45    40 1
   47    46    19 1
   48    46    41 1
   49    47    14 1
   50    47    16 1
   51    47    42 1
   52    48    38 1
   53    49    48 1
   54    50    49 1
   55    51    50 1
   56    52    51 1
   57    53    51 1
   58    54    53 1
   59    55    54 1
   60    56    55 1
   61    57    56 1
   62    58    56 1
   63    59    58 1
   64    60    59 1
   65    61    60 1
   66    62    61 1
   67    63    61 1
   68    64    27 1
   69    64    46 1
   70    65     5 1
   71    65    10 1
   72    65    64 1
   73    65    14 1
   74    66    23 1
   75    67    23 1
   76    68    23 1
   77    69    22 1
   78    70    22 1
   79    71    22 1
   80    72    21 1
   81    73    21 1
   82    74    21 1
   83    75    20 1
   84    76    20 1
   85    77    20 1
   86    78    15 1
   87    79    15 1
   88    80    15 1
   89    81     8 1
   90    82     8 1
   91    83     8 1
   92    84     7 1
   93    85     7 1
   94    86     6 1
   95    87     6 1
   96    88     3 1
   97    89     3 1
   98    90     1 1
   99    91     1 1
  100    92    63 1
  101    93    63 1
  102    94    63 1
  103    95    62 1
  104    96    62 1
  105    97    62 1
  106    98    60 1
  107    99    60 1
  108   100    59 1
  109   101    59 1
  110   102    58 1
  111   103    58 1
  112   104    57 1
  113   105    57 1
  114   106    57 1
  115   107    55 1
  116   108    55 1
  117   109    54 1
  118   110    54 1
  119   111    53 1
  120   112    53 1
  121   113    19 1
  122   114    18 1
  123   115    17 1
  124   116     9 1
  125   117     2 1
  126   118    52 1
  127   119    52 1
  128   120    52 1
  129   121    51 1
  130   122    50 1
  131   123    50 1
  132   124    49 1
  133   125    49 1
  134   126    48 1
  135   127    48 1
  136   128    43 1
  137   129    43 1
  138   130    43 1
  139   131    39 1
  140   132    32 1
  141   133    31 1
  142   134    61 1
  143   135    56 1
  144   136    24 1
  145   137    24 1
  146   139   138 1
  147   140   139 1
  148   141   140 1
  149   142   140 1
  150   143   142 1
  151   144   138 1
  152   144   143 1
  153   145   144 1
  154   146   145 1
  155   147   146 1
  156   148   147 1
  157   149   148 1
  158   150   149 1
  159   151   150 1
  160   152   151 1
  161   153   152 1
  162   154   138 1
  163   155   138 1
  164   156   143 1
  165   157   147 1
  166   158   151 1
  167   160   159 1
  168   161   160 1
  169   162   161 1
  170   163   161 1
  171   164   163 1
  172   165   159 1
  173   165   164 1
  174   166   165 1
  175   167   166 1
  176   168   167 1
  177   169   168 1
  178   170   169 1
  179   171   170 1
  180   172   171 1
  181   173   172 1
  182   174   153 1
  183   174   173 1
  184   175   159 1
  185   176   159 1
  186   177   164 1
  187   178   168 1
  188   179   172 1
  189   180   179 1
  190   181   179 1
  191   182   179 1
  192   183   178 1
  193   184   178 1
  194   185   178 1
  195   186   177 1
  196   187   177 1
  197   188   177 1
  198   189   176 1
  199   190   176 1
  200   191   176 1
  201   192   175 1
  202   193   175 1
  203   194   175 1
  204   195   160 1
  205   196   160 1
  206   197   158 1
  207   198   158 1
  208   199   158 1
  209   200   157 1
  210   201   157 1
  211   202   157 1
  212   203   156 1
  213   204   156 1
  214   205   156 1
  215   206   155 1
  216   207   155 1
  217   208   155 1
  218   209   154 1
  219   210   154 1
  220   211   154 1
  221   212   141 1
  222   213   146 1
  223   214   145 1
  224   215   142 1
  225   216   142 1
  226   217   174 1
  227   218   173 1
  228   219   171 1
  229   220   170 1
  230   221   169 1
  231   222   140 1
  232   223   167 1
  233   224   166 1
  234   225   165 1
  235   226   163 1
  236   227   161 1
  237   228   139 1
  238   229   139 1
  239   230   153 1
  240   231   152 1
  241   232   150 1
  242   233   149 1
  243   234   148 1
  244   235   162 1
  245   65    153 1
  246   65    174 1
@<TRIPOS>SUBSTRUCTURE
      1 CLA               1 ****               0 ****  **** 
      2 LUT             138 ****               0 ****  **** 
