@<TRIPOS>MOLECULE
Cpptraj generated mol2 file.
  235   246     2     0     0
SMALL
USER_CHARGES


@<TRIPOS>ATOM
      1 CAA        79.7255   58.5283   35.0594 a2         1 CLA     -0.055900
      2 CAB        79.9540   62.1862   43.9330 c8         1 CLA     -0.148500
      3 CAC        72.8590   58.5664   43.3390 a2         1 CLA     -0.012600
      4 CAD        75.6532   55.7405   36.3709 ck         1 CLA      0.398800
      5 NA         78.8748   58.8190   38.4001 ns         1 CLA     -0.225500
      6 CBA        80.9468   58.3867   34.1145 a2         1 CLA     -0.135000
      7 CBB        81.1226   62.1080   44.6328 c0         1 CLA     -0.395200
      8 CBC        73.0558   57.0607   43.7036 a3         1 CLA     -0.037700
      9 CBD        77.1415   56.2123   36.0009 a1         1 CLA     -0.053900
     10 NB         78.7186   60.3128   40.9139 nm         1 CLA     -0.295700
     11 OBD        75.0375   54.8375   35.7136 o2         1 CLA     -0.494600
     12 CGA        81.4043   56.9503   33.8938 c4         1 CLA      0.827000
     13 CGD        78.0543   55.0252   35.7724 c4         1 CLA      0.655300
     14 ND         76.0542   57.9348   38.9857 nm         1 CLA     -0.291600
     15 CED        78.6362   52.6710   36.4097 a3         1 CLA      0.005400
     16 CHA        77.5424   57.2094   37.1321 cs         1 CLA     -0.123800
     17 CHB        80.6225   60.1513   39.3239 aa         1 CLA     -0.291900
     18 CHC        77.3831   60.7027   42.9947 aa         1 CLA     -0.090400
     19 CHD        74.1332   57.9163   40.6068 aa         1 CLA     -0.052000
     20 CMA        82.0913   57.7640   37.8878 a3         1 CLA     -0.230700
     21 CMB        81.8966   62.1382   41.2628 a3         1 CLA     -0.180800
     22 CMC        74.9130   60.5210   44.8399 a3         1 CLA     -0.134000
     23 CMD        72.8775   56.0988   38.3327 a3         1 CLA     -0.141100
     24 C1         82.4601   55.1342   34.9358 a2         1 CLA      0.023000
     25 C1A        78.6892   57.9551   37.3511 ac         1 CLA     -0.015100
     26 C1B        79.9580   60.6375   40.5050 cr         1 CLA      0.054700
     27 C1C        76.1940   60.0566   42.5983 cn         1 CLA     -0.005600
     28 C1D        74.7987   57.5110   39.4295 ap         1 CLA     -0.047300
     29 O1A        81.1539   56.2929   32.9074 o2         1 CLA     -0.610800
     30 O1D        78.9580   54.9813   34.9451 o2         1 CLA     -0.558200
     31 C2         83.1455   54.7942   36.2097 c8         1 CLA     -0.325100
     32 C2A        79.8834   57.9184   36.5109 a1         1 CLA      0.098600
     33 C2B        80.5502   61.4613   41.4890 cb         1 CLA      0.088500
     34 C2C        74.9769   59.9615   43.4590 cb         1 CLA      0.053700
     35 C2D        74.2490   56.6441   38.4274 cb         1 CLA      0.058900
     36 O2A        82.0569   56.5224   34.9952 o1         1 CLA     -0.437200
     37 O2D        77.8516   53.9614   36.6247 o1         1 CLA     -0.357600
     38 C3         84.4986   54.8358   36.4356 c5         1 CLA      0.031200
     39 C3A        80.9539   58.6485   37.3256 a1         1 CLA      0.166800
     40 C3B        79.7161   61.4983   42.5974 cb         1 CLA      0.035000
     41 C3C        74.1273   59.1237   42.8442 cb         1 CLA     -0.089900
     42 C3D        75.3144   56.4912   37.5507 cb         1 CLA     -0.035900
     43 C4         85.2808   53.5659   36.5160 a3         1 CLA     -0.053300
     44 C4A        80.0727   59.2726   38.3767 ac         1 CLA      0.001800
     45 C4B        78.5259   60.8684   42.1856 cn         1 CLA     -0.020900
     46 C4C        74.7324   58.7605   41.5984 cr         1 CLA     -0.044400
     47 C4D        76.4051   57.2390   37.9251 c6         1 CLA     -0.046000
     48 C5         85.3067   56.0877   36.8249 a2         1 CLA     -0.070400
     49 C6         85.5574   56.1749   38.3471 a2         1 CLA      0.043900
     50 C7         86.6627   57.1941   38.5684 a2         1 CLA     -0.150000
     51 C8         88.1525   56.7445   38.7897 a1         1 CLA      0.064200
     52 C9         88.6027   55.8028   37.7123 a3         1 CLA     -0.259300
     53 C10        88.4869   56.1832   40.2044 a2         1 CLA     -0.071900
     54 C11        88.6333   57.2589   41.3988 a2         1 CLA      0.014500
     55 C12        88.7243   56.4896   42.7928 a2         1 CLA     -0.112100
     56 C13        88.5492   57.4245   44.0839 a1         1 CLA      0.089200
     57 C14        88.8972   56.7072   45.3461 a3         1 CLA     -0.239100
     58 C15        87.0965   57.9610   44.1997 a2         1 CLA     -0.102200
     59 C16        86.8441   58.8640   45.4511 a2         1 CLA      0.023900
     60 C17        85.5022   59.4876   45.3558 a2         1 CLA     -0.105700
     61 C18        85.0383   60.2206   46.7002 a1         1 CLA      0.206800
     62 C19        86.0305   61.2860   47.2180 a3         1 CLA     -0.280100
     63 C20        83.5547   60.6739   46.6475 a3         1 CLA     -0.280100
     64 NC         75.9727   59.3721   41.4446 nx         1 CLA     -0.309200
     65 MG         77.3103   59.2039   39.8314 mg         1 CLA      0.895000
     66 HMD3       72.4361   55.6544   39.2564 dc         1 CLA      0.064300
     67 HMD2       72.2951   56.9220   37.9428 dc         1 CLA      0.064300
     68 HMD1       72.7734   55.3624   37.5303 dc         1 CLA      0.064300
     69 HMC3       73.9036   60.6026   45.2354 dc         1 CLA      0.052100
     70 HMC2       75.4677   59.9449   45.5792 dc         1 CLA      0.052100
     71 HMC1       75.3890   61.4795   44.7593 dc         1 CLA      0.052100
     72 HMB3       82.0064   62.3728   40.1801 dc         1 CLA      0.063600
     73 HMB2       82.0672   63.1075   41.7961 dc         1 CLA      0.063600
     74 HMB1       82.5755   61.3434   41.5224 dc         1 CLA      0.063600
     75 HMA3       82.6276   58.1874   38.7577 dc         1 CLA      0.058300
     76 HMA2       81.7049   56.7969   38.2975 dc         1 CLA      0.058300
     77 HMA1       82.7323   57.6062   37.0645 dc         1 CLA      0.058300
     78 HED3       78.5739   52.2289   35.3914 dc         1 CLA      0.079300
     79 HED2       79.7074   52.7134   36.6735 dc         1 CLA      0.079300
     80 HED1       78.2659   51.8754   37.0961 dc         1 CLA      0.079300
     81 HBC3       73.2075   56.4591   42.7982 dc         1 CLA      0.016300
     82 HBC2       73.9636   56.9645   44.3298 dc         1 CLA      0.016300
     83 HBC1       72.2602   56.7492   44.3161 dc         1 CLA      0.016300
     84 HBB2       81.2317   62.3632   45.7065 da         1 CLA      0.183000
     85 HBB1       81.9057   61.5223   44.1903 da         1 CLA      0.183000
     86 HBA2       80.7775   58.9190   33.2002 dc         1 CLA      0.029400
     87 HBA1       81.7620   58.9384   34.6016 dc         1 CLA      0.029400
     88 HAC2       72.5207   59.1127   44.2484 dc         1 CLA      0.029300
     89 HAC1       72.0678   58.6742   42.5048 dc         1 CLA      0.029300
     90 HAA2       78.8627   58.0164   34.6001 dc         1 CLA      0.028700
     91 HAA1       79.4581   59.5707   35.2073 dc         1 CLA      0.028700
     92 H203       83.3829   61.5608   47.2975 dc         1 CLA      0.065600
     93 H202       83.3845   60.9218   45.6296 dc         1 CLA      0.065600
     94 H201       82.8481   59.8847   46.9197 dc         1 CLA      0.065600
     95 H193       85.8755   62.2784   46.7340 dc         1 CLA      0.065600
     96 H192       85.9416   61.2902   48.3000 dc         1 CLA      0.065600
     97 H191       87.0169   61.0854   46.8620 dc         1 CLA      0.065600
     98 H172       85.4859   60.0886   44.4732 dc         1 CLA      0.027600
     99 H171       84.8361   58.6544   45.1104 dc         1 CLA      0.027600
    100 H162       86.7184   58.2363   46.3373 dc         1 CLA      0.002900
    101 H161       87.5516   59.6495   45.5904 dc         1 CLA      0.002900
    102 H152       86.9051   58.4708   43.2172 dc         1 CLA      0.029100
    103 H151       86.4524   57.1815   44.2735 dc         1 CLA      0.029100
    104 H143       88.1705   55.9504   45.6945 dc         1 CLA      0.063600
    105 H142       89.7865   56.1468   45.1422 dc         1 CLA      0.063600
    106 H141       89.1428   57.4302   46.1294 dc         1 CLA      0.063600
    107 H122       87.8716   55.8263   42.9302 dc         1 CLA      0.032500
    108 H121       89.6132   55.9253   42.8288 dc         1 CLA      0.032500
    109 H112       89.5833   57.8772   41.2601 dc         1 CLA      0.006600
    110 H111       87.7482   57.8951   41.3090 dc         1 CLA      0.006600
    111 H102       87.6872   55.4199   40.3750 dc         1 CLA      0.024100
    112 H101       89.4931   55.7336   40.2888 dc         1 CLA      0.024100
    113 HHD        73.1424   57.5175   40.7634 da         1 CLA      0.174300
    114 HHC        77.4279   61.0103   44.0472 da         1 CLA      0.136800
    115 HHB        81.7349   60.3419   39.1859 da         1 CLA      0.138300
    116 HBD        77.1468   56.7376   35.0262 dc         1 CLA      0.107700
    117 HAB        79.2104   62.6562   44.5303 da         1 CLA      0.155200
    118 H93        87.8448   55.0430   37.5863 dc         1 CLA      0.069500
    119 H92        88.6817   56.4232   36.7685 dc         1 CLA      0.069500
    120 H91        89.5499   55.3365   37.9073 dc         1 CLA      0.069500
    121 H8         88.7884   57.6545   38.6462 dc         1 CLA      0.029300
    122 H72        86.7351   57.8496   37.7356 dc         1 CLA      0.044400
    123 H71        86.3747   57.9084   39.3385 dc         1 CLA      0.044400
    124 H62        84.6674   56.3352   38.9430 dc         1 CLA      0.015600
    125 H61        85.8243   55.2434   38.8130 dc         1 CLA      0.015600
    126 H52        86.2760   56.0255   36.4355 dc         1 CLA      0.033200
    127 H51        84.8845   56.9807   36.4385 dc         1 CLA      0.033200
    128 H43        84.7125   52.6622   36.2325 dc         1 CLA      0.037000
    129 H42        86.1823   53.7276   35.8786 dc         1 CLA      0.037000
    130 H41        85.5196   53.3680   37.5857 dc         1 CLA      0.037000
    131 H3A        81.4733   59.4340   36.7346 dc         1 CLA      0.041100
    132 H2A        80.0975   56.8291   36.3783 dc         1 CLA      0.083100
    133 H2         82.5701   54.7578   37.1142 da         1 CLA      0.180900
    134 H18        85.0615   59.4490   47.3844 dc         1 CLA     -0.003900
    135 H13        89.2643   58.2515   43.9020 dc         1 CLA      0.019700
    136 H12        81.5968   54.4778   34.6243 dc         1 CLA      0.120400
    137 H11        83.1959   55.0622   34.1838 dc         1 CLA      0.120400
    138 C1         70.1964   62.4217   49.9897 Z1         2 LUT      0.509236
    139 C2         68.8965   62.0367   50.7698 Z2         2 LUT     -0.434695
    140 C3         67.9919   63.1942   51.1425 Z3         2 LUT      0.437453
    141 O3         68.1947   63.6009   52.5663 S1         2 LUT     -0.547129
    142 C4         68.1029   64.4102   50.2360 Z4         2 LUT     -0.468603
    143 C5         68.7556   64.1792   48.8519 Z5         2 LUT      0.279246
    144 C6         69.7694   63.2588   48.7441 Z6         2 LUT     -0.305473
    145 C7         70.2092   62.7810   47.4469 Z7         2 LUT      0.069402
    146 C8         71.3314   63.2012   46.8274 Z8         2 LUT     -0.191631
    147 C9         71.7571   62.6361   45.5310 Z9         2 LUT      0.196698
    148 C10        72.7420   63.3953   44.9416 Y1         2 LUT     -0.208611
    149 C11        73.3325   63.1882   43.6594 Y2         2 LUT      0.030784
    150 C12        74.6076   63.6736   43.3986 Y3         2 LUT     -0.220316
    151 C13        75.4741   63.5503   42.2730 Y4         2 LUT      0.215937
    152 C14        76.6325   64.1962   42.2703 Y5         2 LUT     -0.185793
    153 C15        77.5472   64.2397   41.2260 Y6         2 LUT     -0.057835
    154 C16        71.0623   61.1173   49.8174 Y7         2 LUT     -0.405615
    155 C17        70.9802   63.2413   51.0750 Y7         2 LUT     -0.405615
    156 C18        68.1582   64.9261   47.7217 Y9         2 LUT     -0.369639
    157 C19        70.9967   61.5375   44.9012 W1         2 LUT     -0.333362
    158 C20        75.0868   62.6515   41.0649 W2         2 LUT     -0.323439
    159 C21        88.6049   65.0657   34.6185 Z1         2 LUT      0.406104
    160 C22        89.3974   64.3742   33.4843 Z2         2 LUT     -0.404965
    161 C23        89.7434   65.2342   32.2504 Z3         2 LUT      0.391255
    162 O23        90.4149   64.4663   31.2046 S1         2 LUT     -0.528210
    163 C24        88.5492   66.1925   31.9361 W6         2 LUT     -0.258361
    164 C25        87.4594   66.3780   32.7055 Z5         2 LUT      0.133546
    165 C26        87.2497   65.6570   34.0332 W8         2 LUT     -0.147008
    166 C27        86.3254   66.4232   35.0313 Z7         2 LUT      0.023843
    167 C28        85.2218   65.8867   35.6405 Z8         2 LUT     -0.216987
    168 C29        84.6156   66.3353   36.9130 Z9         2 LUT      0.206524
    169 C30        83.5204   65.6431   37.3880 Y1         2 LUT     -0.215556
    170 C31        82.7287   65.7413   38.5934 Y2         2 LUT      0.025142
    171 C32        81.5871   65.2563   38.9342 Y3         2 LUT     -0.212209
    172 C33        80.7727   65.5455   40.0657 Y4         2 LUT      0.240937
    173 C34        79.6404   64.8532   40.1834 Y5         2 LUT     -0.218862
    174 C35        78.7436   64.8668   41.2687 Y6         2 LUT     -0.023547
    175 C36        89.5808   66.1829   35.1906 Y7         2 LUT     -0.393485
    176 C37        88.5284   64.0639   35.7005 Y7         2 LUT     -0.393485
    177 C38        86.3224   67.2187   32.1513 Y9         2 LUT     -0.387526
    178 C39        85.2366   67.5845   37.6023 W1         2 LUT     -0.322618
    179 C40        81.3123   66.3862   41.1374 W2         2 LUT     -0.358472
    180 H403       80.5384   66.6313   41.9143 R7         2 LUT      0.097720
    181 H402       82.2129   65.9706   41.6065 R7         2 LUT      0.097720
    182 H401       81.5162   67.2870   40.6172 R7         2 LUT      0.097720
    183 H393       85.0145   68.5012   37.0106 R4         2 LUT      0.082505
    184 H392       84.9226   67.7246   38.6181 R4         2 LUT      0.082505
    185 H391       86.2914   67.4054   37.6501 R4         2 LUT      0.082505
    186 H383       86.5594   67.5255   31.1194 R1         2 LUT      0.104030
    187 H382       85.4646   66.5818   32.1601 R1         2 LUT      0.104030
    188 H381       86.0881   68.1521   32.7132 R1         2 LUT      0.104030
    189 H373       87.9571   63.1121   35.4645 T4         2 LUT      0.089537
    190 H372       89.5267   63.7702   36.0274 T4         2 LUT      0.089537
    191 H371       88.0844   64.5789   36.5405 T4         2 LUT      0.089537
    192 H363       90.5357   65.7773   35.3818 T4         2 LUT      0.089537
    193 H362       89.7009   67.0289   34.4652 T4         2 LUT      0.089537
    194 H361       89.0804   66.6866   36.0408 T4         2 LUT      0.089537
    195 H222       90.3399   63.9349   33.7447 U2         2 LUT      0.127376
    196 H221       88.8427   63.5349   33.0561 U2         2 LUT      0.127376
    197 H203       75.9351   62.0985   40.7039 R7         2 LUT      0.087068
    198 H202       74.2556   61.9618   41.2285 R7         2 LUT      0.087068
    199 H201       74.7676   63.2047   40.1963 R7         2 LUT      0.087068
    200 H193       71.5045   61.2266   44.0094 R4         2 LUT      0.089716
    201 H192       70.9843   60.6275   45.4931 R4         2 LUT      0.089716
    202 H191       69.9851   61.8792   44.6635 R4         2 LUT      0.089716
    203 H183       68.9021   65.5736   47.2705 R1         2 LUT      0.094572
    204 H182       67.5823   64.3807   46.9822 R1         2 LUT      0.094572
    205 H181       67.5210   65.7128   48.1808 R1         2 LUT      0.094572
    206 H173       70.7478   64.2581   51.1937 T4         2 LUT      0.093752
    207 H172       70.9679   62.8640   52.0590 T4         2 LUT      0.093752
    208 H171       72.0790   63.2982   50.8299 T4         2 LUT      0.093752
    209 H163       71.8166   61.1210   48.9893 T4         2 LUT      0.093752
    210 H162       71.7330   61.0679   50.6305 T4         2 LUT      0.093752
    211 H161       70.4488   60.1880   49.7949 T4         2 LUT      0.093752
    212 HO3        67.9273   62.9113   53.1673 Q1         2 LUT      0.300121
    213 H8         72.0389   63.8392   47.3561 U7         2 LUT      0.080784
    214 H7         69.4273   62.2880   46.8797 U6         2 LUT      0.042190
    215 H42        67.1835   64.9256   50.2225 U5         2 LUT      0.145166
    216 H41        68.6132   65.1381   50.8056 U5         2 LUT      0.145166
    217 H35        78.9995   65.4688   42.1493 T3         2 LUT      0.077919
    218 H34        79.4089   64.0590   39.4296 T2         2 LUT      0.073626
    219 H32        81.1047   64.5087   38.3002 T1         2 LUT      0.092510
    220 H31        83.1205   66.4202   39.2688 U9         2 LUT      0.070048
    221 H30        83.0371   64.9097   36.6794 U8         2 LUT      0.085442
    222 H3         67.0202   62.7816   51.0956 U3         2 LUT     -0.031596
    223 H28        84.7810   64.9866   35.2495 U7         2 LUT      0.084728
    224 H27        86.7498   67.3496   35.4391 U6         2 LUT      0.087291
    225 H26        86.6664   64.7674   33.7198 Q6         2 LUT      0.075325
    226 H24        88.6529   66.6005   30.9570 Q5         2 LUT      0.094482
    227 H23        90.5211   65.8216   32.5855 U3         2 LUT     -0.024869
    228 H22        68.3009   61.4548   50.0703 U2         2 LUT      0.127376
    229 H21        69.0928   61.3528   51.5507 U2         2 LUT      0.127376
    230 H15        77.3464   63.6796   40.3503 T3         2 LUT      0.093200
    231 H14        76.9654   64.7763   43.2085 T2         2 LUT      0.068865
    232 H12        75.0693   64.3157   44.1153 T1         2 LUT      0.095507
    233 H11        72.8592   62.5674   42.8930 U9         2 LUT      0.068930
    234 H10        73.1389   64.2385   45.4528 U8         2 LUT      0.083911
    235 H1         89.8303   63.9335   30.6439 Q1         2 LUT      0.297311
@<TRIPOS>BOND
    1     6     1 1
    2     7     2 1
    3     8     3 1
    4     9     4 1
    5    11     4 1
    6    12     6 1
    7    13     9 1
    8    16     9 1
    9    25     5 1
   10    25    16 1
   11    26    10 1
   12    26    17 1
   13    27    18 1
   14    28    14 1
   15    28    19 1
   16    29    12 1
   17    30    13 1
   18    31    24 1
   19    32     1 1
   20    32    25 1
   21    33    21 1
   22    33    26 1
   23    34    22 1
   24    34    27 1
   25    35    23 1
   26    35    28 1
   27    36    12 1
   28    36    24 1
   29    37    13 1
   30    37    15 1
   31    38    31 1
   32    39    20 1
   33    39    32 1
   34    40     2 1
   35    40    33 1
   36    41     3 1
   37    41    34 1
   38    42     4 1
   39    42    35 1
   40    43    38 1
   41    44     5 1
   42    44    17 1
   43    44    39 1
   44    45    10 1
   45    45    18 1
   46    45    40 1
   47    46    19 1
   48    46    41 1
   49    47    14 1
   50    47    16 1
   51    47    42 1
   52    48    38 1
   53    49    48 1
   54    50    49 1
   55    51    50 1
   56    52    51 1
   57    53    51 1
   58    54    53 1
   59    55    54 1
   60    56    55 1
   61    57    56 1
   62    58    56 1
   63    59    58 1
   64    60    59 1
   65    61    60 1
   66    62    61 1
   67    63    61 1
   68    64    27 1
   69    64    46 1
   70    65     5 1
   71    65    10 1
   72    65    64 1
   73    65    14 1
   74    66    23 1
   75    67    23 1
   76    68    23 1
   77    69    22 1
   78    70    22 1
   79    71    22 1
   80    72    21 1
   81    73    21 1
   82    74    21 1
   83    75    20 1
   84    76    20 1
   85    77    20 1
   86    78    15 1
   87    79    15 1
   88    80    15 1
   89    81     8 1
   90    82     8 1
   91    83     8 1
   92    84     7 1
   93    85     7 1
   94    86     6 1
   95    87     6 1
   96    88     3 1
   97    89     3 1
   98    90     1 1
   99    91     1 1
  100    92    63 1
  101    93    63 1
  102    94    63 1
  103    95    62 1
  104    96    62 1
  105    97    62 1
  106    98    60 1
  107    99    60 1
  108   100    59 1
  109   101    59 1
  110   102    58 1
  111   103    58 1
  112   104    57 1
  113   105    57 1
  114   106    57 1
  115   107    55 1
  116   108    55 1
  117   109    54 1
  118   110    54 1
  119   111    53 1
  120   112    53 1
  121   113    19 1
  122   114    18 1
  123   115    17 1
  124   116     9 1
  125   117     2 1
  126   118    52 1
  127   119    52 1
  128   120    52 1
  129   121    51 1
  130   122    50 1
  131   123    50 1
  132   124    49 1
  133   125    49 1
  134   126    48 1
  135   127    48 1
  136   128    43 1
  137   129    43 1
  138   130    43 1
  139   131    39 1
  140   132    32 1
  141   133    31 1
  142   134    61 1
  143   135    56 1
  144   136    24 1
  145   137    24 1
  146   139   138 1
  147   140   139 1
  148   141   140 1
  149   142   140 1
  150   143   142 1
  151   144   138 1
  152   144   143 1
  153   145   144 1
  154   146   145 1
  155   147   146 1
  156   148   147 1
  157   149   148 1
  158   150   149 1
  159   151   150 1
  160   152   151 1
  161   153   152 1
  162   154   138 1
  163   155   138 1
  164   156   143 1
  165   157   147 1
  166   158   151 1
  167   160   159 1
  168   161   160 1
  169   162   161 1
  170   163   161 1
  171   164   163 1
  172   165   159 1
  173   165   164 1
  174   166   165 1
  175   167   166 1
  176   168   167 1
  177   169   168 1
  178   170   169 1
  179   171   170 1
  180   172   171 1
  181   173   172 1
  182   174   153 1
  183   174   173 1
  184   175   159 1
  185   176   159 1
  186   177   164 1
  187   178   168 1
  188   179   172 1
  189   180   179 1
  190   181   179 1
  191   182   179 1
  192   183   178 1
  193   184   178 1
  194   185   178 1
  195   186   177 1
  196   187   177 1
  197   188   177 1
  198   189   176 1
  199   190   176 1
  200   191   176 1
  201   192   175 1
  202   193   175 1
  203   194   175 1
  204   195   160 1
  205   196   160 1
  206   197   158 1
  207   198   158 1
  208   199   158 1
  209   200   157 1
  210   201   157 1
  211   202   157 1
  212   203   156 1
  213   204   156 1
  214   205   156 1
  215   206   155 1
  216   207   155 1
  217   208   155 1
  218   209   154 1
  219   210   154 1
  220   211   154 1
  221   212   141 1
  222   213   146 1
  223   214   145 1
  224   215   142 1
  225   216   142 1
  226   217   174 1
  227   218   173 1
  228   219   171 1
  229   220   170 1
  230   221   169 1
  231   222   140 1
  232   223   167 1
  233   224   166 1
  234   225   165 1
  235   226   163 1
  236   227   161 1
  237   228   139 1
  238   229   139 1
  239   230   153 1
  240   231   152 1
  241   232   150 1
  242   233   149 1
  243   234   148 1
  244   235   162 1
  245   65    153 1
  246   65    174 1
@<TRIPOS>SUBSTRUCTURE
      1 CLA               1 ****               0 ****  **** 
      2 LUT             138 ****               0 ****  **** 
