@<TRIPOS>MOLECULE
Cpptraj generated mol2 file.
  235   246     2     0     0
SMALL
USER_CHARGES


@<TRIPOS>ATOM
      1 CAA        80.0470   58.9017   33.2788 a2         1 CLA     -0.055900
      2 CAB        79.1754   62.4020   42.3987 c8         1 CLA     -0.148500
      3 CAC        72.5359   58.2069   41.3589 a2         1 CLA     -0.012600
      4 CAD        75.8633   56.0405   34.0752 ck         1 CLA      0.398800
      5 NA         78.8295   58.9887   36.7387 ns         1 CLA     -0.225500
      6 CBA        81.2886   58.7752   32.3593 a2         1 CLA     -0.135000
      7 CBB        80.2144   62.8959   43.0746 c0         1 CLA     -0.395200
      8 CBC        72.3181   56.7211   41.0481 a3         1 CLA     -0.037700
      9 CBD        77.2120   56.7749   33.8627 a1         1 CLA     -0.053900
     10 NB         78.5088   60.4230   39.3331 nm         1 CLA     -0.295700
     11 OBD        75.3370   55.2152   33.3516 o2         1 CLA     -0.494600
     12 CGA        81.8069   57.3896   32.0182 c4         1 CLA      0.827000
     13 CGD        78.3555   55.7711   33.5205 c4         1 CLA      0.655300
     14 ND         75.9821   58.1085   37.0176 nm         1 CLA     -0.291600
     15 CED        79.2877   53.6138   34.0738 a3         1 CLA      0.005400
     16 CHA        77.5761   57.5827   35.0967 cs         1 CLA     -0.123800
     17 CHB        80.5676   60.2871   37.9862 aa         1 CLA     -0.291900
     18 CHC        76.9413   60.6090   41.2787 aa         1 CLA     -0.090400
     19 CHD        74.0181   57.9038   38.4898 aa         1 CLA     -0.052000
     20 CMA        82.4978   58.7128   35.9915 a3         1 CLA     -0.230700
     21 CMB        81.7494   61.9963   40.3153 a3         1 CLA     -0.180800
     22 CMC        74.5618   60.1621   43.1012 a3         1 CLA     -0.134000
     23 CMD        72.9280   56.0398   36.0784 a3         1 CLA     -0.141100
     24 C1         82.5698   55.3526   32.8377 a2         1 CLA      0.023000
     25 C1A        78.7093   58.3413   35.5197 ac         1 CLA     -0.015100
     26 C1B        79.8262   60.6385   39.1247 cr         1 CLA      0.054700
     27 C1C        75.9007   59.7993   40.8367 cn         1 CLA     -0.005600
     28 C1D        74.7455   57.5980   37.2621 ap         1 CLA     -0.047300
     29 O1A        81.8257   56.8839   30.9022 o2         1 CLA     -0.610800
     30 O1D        79.1574   55.8599   32.5445 o2         1 CLA     -0.558200
     31 C2         83.1797   54.7801   34.0751 c8         1 CLA     -0.325100
     32 C2A        80.0620   58.4721   34.7516 a1         1 CLA      0.098600
     33 C2B        80.2819   61.5049   40.1578 cb         1 CLA      0.088500
     34 C2C        74.7391   59.5038   41.7113 cb         1 CLA      0.053700
     35 C2D        74.3922   56.6318   36.1712 cb         1 CLA      0.058900
     36 O2A        82.3291   56.7613   33.1457 o1         1 CLA     -0.437200
     37 O2D        78.3492   54.7288   34.3620 o1         1 CLA     -0.357600
     38 C3         84.1193   53.7788   34.2121 c5         1 CLA      0.031200
     39 C3A        81.0570   59.2671   35.6859 a1         1 CLA      0.166800
     40 C3B        79.2755   61.6705   41.1394 cb         1 CLA      0.035000
     41 C3C        73.8609   58.7284   40.8976 cb         1 CLA     -0.089900
     42 C3D        75.4499   56.6434   35.3119 cb         1 CLA     -0.035900
     43 C4         83.7856   52.2857   34.3496 a3         1 CLA     -0.053300
     44 C4A        80.1185   59.4673   36.9524 ac         1 CLA      0.001800
     45 C4B        78.1454   60.9109   40.6067 cn         1 CLA     -0.020900
     46 C4C        74.4895   58.6277   39.5700 cr         1 CLA     -0.044400
     47 C4D        76.3740   57.5349   35.8657 c6         1 CLA     -0.046000
     48 C5         85.5778   54.0486   34.0919 a2         1 CLA     -0.070400
     49 C6         85.9140   55.4060   34.7818 a2         1 CLA      0.043900
     50 C7         86.0276   55.2847   36.3502 a2         1 CLA     -0.150000
     51 C8         86.2047   56.6308   37.0650 a1         1 CLA      0.064200
     52 C9         87.2108   57.4373   36.3461 a3         1 CLA     -0.259300
     53 C10        86.6745   56.3077   38.5382 a2         1 CLA     -0.071900
     54 C11        86.7315   57.4940   39.6141 a2         1 CLA      0.014500
     55 C12        87.1833   56.9487   40.8930 a2         1 CLA     -0.112100
     56 C13        86.9846   58.1166   41.9601 a1         1 CLA      0.089200
     57 C14        88.0798   59.1246   41.7592 a3         1 CLA     -0.239100
     58 C15        86.8212   57.5898   43.4328 a2         1 CLA     -0.102200
     59 C16        86.6053   58.5918   44.5850 a2         1 CLA      0.023900
     60 C17        86.0507   57.8004   45.7650 a2         1 CLA     -0.105700
     61 C18        85.6259   58.6799   46.9634 a1         1 CLA      0.206800
     62 C19        84.6129   59.7793   46.6728 a3         1 CLA     -0.280100
     63 C20        85.0922   57.7702   47.9855 a3         1 CLA     -0.280100
     64 NC         75.7829   59.2677   39.6070 nx         1 CLA     -0.309200
     65 MG         77.2258   59.3788   38.1137 mg         1 CLA      0.895000
     66 HMD3       72.1318   56.7774   35.7575 dc         1 CLA      0.064300
     67 HMD2       72.9446   55.1907   35.3357 dc         1 CLA      0.064300
     68 HMD1       72.7071   55.6694   37.0769 dc         1 CLA      0.064300
     69 HMC3       75.2617   59.7597   43.8765 dc         1 CLA      0.052100
     70 HMC2       74.7870   61.2405   42.9702 dc         1 CLA      0.052100
     71 HMC1       73.4908   60.0885   43.3055 dc         1 CLA      0.052100
     72 HMB3       82.2941   61.9617   39.3341 dc         1 CLA      0.063600
     73 HMB2       81.5759   63.0586   40.6142 dc         1 CLA      0.063600
     74 HMB1       82.2938   61.4631   41.0640 dc         1 CLA      0.063600
     75 HMA3       83.0516   59.4034   36.7111 dc         1 CLA      0.058300
     76 HMA2       82.3469   57.7460   36.4584 dc         1 CLA      0.058300
     77 HMA1       83.1177   58.6380   35.0908 dc         1 CLA      0.058300
     78 HED3       80.2708   53.9602   34.3944 dc         1 CLA      0.079300
     79 HED2       79.2694   52.7166   34.6741 dc         1 CLA      0.079300
     80 HED1       79.3182   53.2727   33.0348 dc         1 CLA      0.079300
     81 HBC3       72.0973   56.5959   40.0154 dc         1 CLA      0.016300
     82 HBC2       73.1587   56.1114   41.3149 dc         1 CLA      0.016300
     83 HBC1       71.4341   56.4252   41.5642 dc         1 CLA      0.016300
     84 HBB2       80.0497   63.3983   43.9829 da         1 CLA      0.183000
     85 HBB1       81.2254   62.8359   42.7394 da         1 CLA      0.183000
     86 HBA2       81.2407   59.3144   31.5227 dc         1 CLA      0.029400
     87 HBA1       82.1380   59.2441   32.7935 dc         1 CLA      0.029400
     88 HAC2       72.3602   58.3646   42.4521 dc         1 CLA      0.029300
     89 HAC1       71.7982   58.6849   40.7839 dc         1 CLA      0.029300
     90 HAA2       79.2151   58.4471   32.7785 dc         1 CLA      0.028700
     91 HAA1       79.6938   59.9540   33.3458 dc         1 CLA      0.028700
     92 H203       85.7798   56.9724   48.2128 dc         1 CLA      0.065600
     93 H202       84.8915   58.2710   48.8953 dc         1 CLA      0.065600
     94 H201       84.0691   57.4364   47.6107 dc         1 CLA      0.065600
     95 H193       84.3512   60.2091   47.6322 dc         1 CLA      0.065600
     96 H192       85.0619   60.4198   45.9764 dc         1 CLA      0.065600
     97 H191       83.6999   59.3009   46.2365 dc         1 CLA      0.065600
     98 H172       85.2455   57.1742   45.3286 dc         1 CLA      0.027600
     99 H171       86.7474   57.0485   46.0683 dc         1 CLA      0.027600
    100 H162       87.4745   59.0623   44.9697 dc         1 CLA      0.002900
    101 H161       85.9623   59.3520   44.0921 dc         1 CLA      0.002900
    102 H152       86.0912   56.8102   43.4640 dc         1 CLA      0.029100
    103 H151       87.7691   57.0727   43.6781 dc         1 CLA      0.029100
    104 H143       88.0637   59.3570   40.7546 dc         1 CLA      0.063600
    105 H142       87.8295   60.1116   42.2704 dc         1 CLA      0.063600
    106 H141       89.0393   58.6464   42.1781 dc         1 CLA      0.063600
    107 H122       86.4737   56.1321   41.1517 dc         1 CLA      0.032500
    108 H121       88.1833   56.6007   40.9052 dc         1 CLA      0.032500
    109 H112       87.3544   58.2453   39.1246 dc         1 CLA      0.006600
    110 H111       85.7113   57.8130   39.6362 dc         1 CLA      0.006600
    111 H102       85.9733   55.4722   38.7841 dc         1 CLA      0.024100
    112 H101       87.7083   55.9030   38.4151 dc         1 CLA      0.024100
    113 HHD        73.0333   57.3712   38.4832 da         1 CLA      0.174300
    114 HHC        76.8093   60.9282   42.2955 da         1 CLA      0.136800
    115 HHB        81.5250   60.7993   37.7445 da         1 CLA      0.138300
    116 HBD        77.1650   57.4150   33.0204 dc         1 CLA      0.107700
    117 HAB        78.2098   62.5163   42.9156 da         1 CLA      0.155200
    118 H93        87.4007   58.3014   36.9508 dc         1 CLA      0.069500
    119 H92        88.1108   56.8554   36.1797 dc         1 CLA      0.069500
    120 H91        86.8188   57.7921   35.3968 dc         1 CLA      0.069500
    121 H8         85.1971   57.0151   37.0409 dc         1 CLA      0.029300
    122 H72        85.1594   54.8561   36.8465 dc         1 CLA      0.044400
    123 H71        86.9026   54.6858   36.6255 dc         1 CLA      0.044400
    124 H62        86.9068   55.6002   34.4470 dc         1 CLA      0.015600
    125 H61        85.2170   56.2569   34.4878 dc         1 CLA      0.015600
    126 H52        86.1501   53.3133   34.6496 dc         1 CLA      0.033200
    127 H51        85.8560   54.0592   33.0149 dc         1 CLA      0.033200
    128 H43        82.7622   52.0140   34.4527 dc         1 CLA      0.037000
    129 H42        84.2205   51.6382   33.5481 dc         1 CLA      0.037000
    130 H41        84.2880   51.9833   35.2908 dc         1 CLA      0.037000
    131 H3A        81.2259   60.2672   35.2862 dc         1 CLA      0.041100
    132 H2A        80.4728   57.4832   34.8183 dc         1 CLA      0.083100
    133 H2         82.8794   55.1590   35.1259 da         1 CLA      0.180900
    134 H18        86.4755   59.2653   47.4065 dc         1 CLA     -0.003900
    135 H13        86.1373   58.6467   41.7465 dc         1 CLA      0.019700
    136 H12        81.6180   54.8558   32.5095 dc         1 CLA      0.120400
    137 H11        83.3144   55.2872   32.0566 dc         1 CLA      0.120400
    138 C1         68.8489   61.1872   48.7371 Z1         2 LUT      0.509236
    139 C2         67.5175   61.2116   49.5616 Z2         2 LUT     -0.434695
    140 C3         66.8413   62.5417   49.8279 Z3         2 LUT      0.437453
    141 O3         66.3470   62.7092   51.1882 S1         2 LUT     -0.547129
    142 C4         67.5547   63.7249   49.2404 Z4         2 LUT     -0.468603
    143 C5         68.2196   63.4278   47.8126 Z5         2 LUT      0.279246
    144 C6         68.8068   62.2415   47.6168 Z6         2 LUT     -0.305473
    145 C7         69.2910   61.7027   46.3442 Z7         2 LUT      0.069402
    146 C8         69.9827   62.4743   45.4852 Z8         2 LUT     -0.191631
    147 C9         70.4685   62.0695   44.1567 Z9         2 LUT      0.196698
    148 C10        71.4414   62.8486   43.6940 Y1         2 LUT     -0.208611
    149 C11        72.1724   62.7267   42.4377 Y2         2 LUT      0.030784
    150 C12        73.2001   63.5351   42.1089 Y3         2 LUT     -0.220316
    151 C13        74.1645   63.3649   40.9819 Y4         2 LUT      0.215937
    152 C14        75.3549   64.0258   40.9637 Y5         2 LUT     -0.185793
    153 C15        76.5021   63.9597   40.1592 Y6         2 LUT     -0.057835
    154 C16        69.2019   59.6761   48.4322 Y7         2 LUT     -0.405615
    155 C17        69.9374   61.5591   49.8109 Y7         2 LUT     -0.405615
    156 C18        67.6916   64.3478   46.7482 Y9         2 LUT     -0.369639
    157 C19        69.8049   60.9499   43.4024 W1         2 LUT     -0.333362
    158 C20        73.7635   62.5962   39.7113 W2         2 LUT     -0.323439
    159 C21        88.0695   66.1697   34.5837 Z1         2 LUT      0.406104
    160 C22        89.1317   65.8715   33.4408 Z2         2 LUT     -0.404965
    161 C23        89.3459   66.9537   32.3666 Z3         2 LUT      0.391255
    162 O23        90.2629   66.4932   31.3445 S1         2 LUT     -0.528210
    163 C24        87.9690   67.5418   31.8874 W6         2 LUT     -0.258361
    164 C25        86.7582   67.3938   32.4737 Z5         2 LUT      0.133546
    165 C26        86.6724   66.5621   33.7901 W8         2 LUT     -0.147008
    166 C27        85.6070   67.0976   34.7733 Z7         2 LUT      0.023843
    167 C28        84.6364   66.3576   35.4125 Z8         2 LUT     -0.216987
    168 C29        83.8783   66.7921   36.6414 Z9         2 LUT      0.206524
    169 C30        82.7446   66.0405   36.9346 Y1         2 LUT     -0.215556
    170 C31        82.0174   66.0669   38.1693 Y2         2 LUT      0.025142
    171 C32        80.7875   65.3921   38.3103 Y3         2 LUT     -0.212209
    172 C33        79.9148   65.4057   39.4554 Y4         2 LUT      0.240937
    173 C34        78.8458   64.5326   39.4083 Y5         2 LUT     -0.218862
    174 C35        77.6499   64.5650   40.2386 Y6         2 LUT     -0.023547
    175 C36        88.6093   67.3722   35.4603 Y7         2 LUT     -0.393485
    176 C37        88.0971   64.8830   35.4001 Y7         2 LUT     -0.393485
    177 C38        85.5689   67.9508   31.7390 Y9         2 LUT     -0.387526
    178 C39        84.5834   67.8702   37.4785 W1         2 LUT     -0.322618
    179 C40        80.3546   66.1324   40.7210 W2         2 LUT     -0.358472
    180 H403       81.4070   66.0990   41.0134 R7         2 LUT      0.097720
    181 H402       80.1487   67.2166   40.6418 R7         2 LUT      0.097720
    182 H401       79.7617   65.7638   41.5860 R7         2 LUT      0.097720
    183 H393       84.7188   68.8251   37.0184 R4         2 LUT      0.082505
    184 H392       83.9773   67.9749   38.3740 R4         2 LUT      0.082505
    185 H391       85.5811   67.4516   37.6392 R4         2 LUT      0.082505
    186 H383       84.9925   67.1643   31.2897 R1         2 LUT      0.104030
    187 H382       84.9371   68.3150   32.5114 R1         2 LUT      0.104030
    188 H381       85.7120   68.6680   30.9155 R1         2 LUT      0.104030
    189 H373       87.5823   64.0498   34.8862 T4         2 LUT      0.089537
    190 H372       89.0913   64.4830   35.6864 T4         2 LUT      0.089537
    191 H371       87.5592   65.1199   36.3235 T4         2 LUT      0.089537
    192 H363       88.6294   68.2856   34.9953 T4         2 LUT      0.089537
    193 H362       88.1261   67.6566   36.4200 T4         2 LUT      0.089537
    194 H361       89.6494   67.1426   35.8091 T4         2 LUT      0.089537
    195 H222       90.1591   65.6182   33.8803 U2         2 LUT      0.127376
    196 H221       88.7128   64.9944   32.9761 U2         2 LUT      0.127376
    197 H203       74.5474   62.0917   39.1691 R7         2 LUT      0.087068
    198 H202       73.0219   61.9011   40.0002 R7         2 LUT      0.087068
    199 H201       73.3246   63.2776   39.0393 R7         2 LUT      0.087068
    200 H193       69.8560   61.1282   42.3271 R4         2 LUT      0.089716
    201 H192       70.2642   59.9812   43.4628 R4         2 LUT      0.089716
    202 H191       68.7827   60.8757   43.5791 R4         2 LUT      0.089716
    203 H183       67.4651   63.7521   45.8445 R1         2 LUT      0.094572
    204 H182       66.7200   64.8548   47.0141 R1         2 LUT      0.094572
    205 H181       68.5010   65.0685   46.4512 R1         2 LUT      0.094572
    206 H173       69.6175   62.4055   50.3878 T4         2 LUT      0.093752
    207 H172       70.2468   60.7249   50.5340 T4         2 LUT      0.093752
    208 H171       70.8289   61.8545   49.2332 T4         2 LUT      0.093752
    209 H163       68.4440   59.2276   47.7741 T4         2 LUT      0.093752
    210 H162       70.2026   59.6693   48.0998 T4         2 LUT      0.093752
    211 H161       69.1512   59.0036   49.3308 T4         2 LUT      0.093752
    212 HO3        67.0121   62.4211   51.8317 Q1         2 LUT      0.300121
    213 H8         70.1522   63.5307   45.5798 U7         2 LUT      0.080784
    214 H7         69.0096   60.6434   46.0529 U6         2 LUT      0.042190
    215 H42        66.8694   64.5916   49.1906 U5         2 LUT      0.145166
    216 H41        68.2839   64.1308   49.9919 U5         2 LUT      0.145166
    217 H35        77.7081   65.2293   41.0038 T3         2 LUT      0.077919
    218 H34        78.8224   63.8634   38.5554 T2         2 LUT      0.073626
    219 H32        80.4191   64.8091   37.4727 T1         2 LUT      0.092510
    220 H31        82.2904   66.8082   38.8644 U9         2 LUT      0.070048
    221 H30        82.4077   65.2813   36.3220 U8         2 LUT      0.085442
    222 H3         66.0233   62.5370   49.1274 U3         2 LUT     -0.031596
    223 H28        84.4795   65.3329   35.0861 U7         2 LUT      0.084728
    224 H27        85.8183   68.0338   35.2318 U6         2 LUT      0.087291
    225 H26        86.3478   65.5628   33.4020 Q6         2 LUT      0.075325
    226 H24        87.9238   68.1418   30.9490 Q5         2 LUT      0.094482
    227 H23        89.9180   67.7799   32.8372 U3         2 LUT     -0.024869
    228 H22        66.8015   60.6738   48.9251 U2         2 LUT      0.127376
    229 H21        67.6095   60.5640   50.4316 U2         2 LUT      0.127376
    230 H15        76.4649   63.2705   39.3298 T3         2 LUT      0.093200
    231 H14        75.4988   64.5837   41.8806 T2         2 LUT      0.068865
    232 H12        73.5755   64.2985   42.7994 T1         2 LUT      0.095507
    233 H11        71.9295   61.9265   41.7592 U9         2 LUT      0.068930
    234 H10        71.8359   63.7093   44.2628 U8         2 LUT      0.083911
    235 H1         89.8812   65.8823   30.7090 Q1         2 LUT      0.297311
@<TRIPOS>BOND
    1     6     1 1
    2     7     2 1
    3     8     3 1
    4     9     4 1
    5    11     4 1
    6    12     6 1
    7    13     9 1
    8    16     9 1
    9    25     5 1
   10    25    16 1
   11    26    10 1
   12    26    17 1
   13    27    18 1
   14    28    14 1
   15    28    19 1
   16    29    12 1
   17    30    13 1
   18    31    24 1
   19    32     1 1
   20    32    25 1
   21    33    21 1
   22    33    26 1
   23    34    22 1
   24    34    27 1
   25    35    23 1
   26    35    28 1
   27    36    12 1
   28    36    24 1
   29    37    13 1
   30    37    15 1
   31    38    31 1
   32    39    20 1
   33    39    32 1
   34    40     2 1
   35    40    33 1
   36    41     3 1
   37    41    34 1
   38    42     4 1
   39    42    35 1
   40    43    38 1
   41    44     5 1
   42    44    17 1
   43    44    39 1
   44    45    10 1
   45    45    18 1
   46    45    40 1
   47    46    19 1
   48    46    41 1
   49    47    14 1
   50    47    16 1
   51    47    42 1
   52    48    38 1
   53    49    48 1
   54    50    49 1
   55    51    50 1
   56    52    51 1
   57    53    51 1
   58    54    53 1
   59    55    54 1
   60    56    55 1
   61    57    56 1
   62    58    56 1
   63    59    58 1
   64    60    59 1
   65    61    60 1
   66    62    61 1
   67    63    61 1
   68    64    27 1
   69    64    46 1
   70    65     5 1
   71    65    10 1
   72    65    64 1
   73    65    14 1
   74    66    23 1
   75    67    23 1
   76    68    23 1
   77    69    22 1
   78    70    22 1
   79    71    22 1
   80    72    21 1
   81    73    21 1
   82    74    21 1
   83    75    20 1
   84    76    20 1
   85    77    20 1
   86    78    15 1
   87    79    15 1
   88    80    15 1
   89    81     8 1
   90    82     8 1
   91    83     8 1
   92    84     7 1
   93    85     7 1
   94    86     6 1
   95    87     6 1
   96    88     3 1
   97    89     3 1
   98    90     1 1
   99    91     1 1
  100    92    63 1
  101    93    63 1
  102    94    63 1
  103    95    62 1
  104    96    62 1
  105    97    62 1
  106    98    60 1
  107    99    60 1
  108   100    59 1
  109   101    59 1
  110   102    58 1
  111   103    58 1
  112   104    57 1
  113   105    57 1
  114   106    57 1
  115   107    55 1
  116   108    55 1
  117   109    54 1
  118   110    54 1
  119   111    53 1
  120   112    53 1
  121   113    19 1
  122   114    18 1
  123   115    17 1
  124   116     9 1
  125   117     2 1
  126   118    52 1
  127   119    52 1
  128   120    52 1
  129   121    51 1
  130   122    50 1
  131   123    50 1
  132   124    49 1
  133   125    49 1
  134   126    48 1
  135   127    48 1
  136   128    43 1
  137   129    43 1
  138   130    43 1
  139   131    39 1
  140   132    32 1
  141   133    31 1
  142   134    61 1
  143   135    56 1
  144   136    24 1
  145   137    24 1
  146   139   138 1
  147   140   139 1
  148   141   140 1
  149   142   140 1
  150   143   142 1
  151   144   138 1
  152   144   143 1
  153   145   144 1
  154   146   145 1
  155   147   146 1
  156   148   147 1
  157   149   148 1
  158   150   149 1
  159   151   150 1
  160   152   151 1
  161   153   152 1
  162   154   138 1
  163   155   138 1
  164   156   143 1
  165   157   147 1
  166   158   151 1
  167   160   159 1
  168   161   160 1
  169   162   161 1
  170   163   161 1
  171   164   163 1
  172   165   159 1
  173   165   164 1
  174   166   165 1
  175   167   166 1
  176   168   167 1
  177   169   168 1
  178   170   169 1
  179   171   170 1
  180   172   171 1
  181   173   172 1
  182   174   153 1
  183   174   173 1
  184   175   159 1
  185   176   159 1
  186   177   164 1
  187   178   168 1
  188   179   172 1
  189   180   179 1
  190   181   179 1
  191   182   179 1
  192   183   178 1
  193   184   178 1
  194   185   178 1
  195   186   177 1
  196   187   177 1
  197   188   177 1
  198   189   176 1
  199   190   176 1
  200   191   176 1
  201   192   175 1
  202   193   175 1
  203   194   175 1
  204   195   160 1
  205   196   160 1
  206   197   158 1
  207   198   158 1
  208   199   158 1
  209   200   157 1
  210   201   157 1
  211   202   157 1
  212   203   156 1
  213   204   156 1
  214   205   156 1
  215   206   155 1
  216   207   155 1
  217   208   155 1
  218   209   154 1
  219   210   154 1
  220   211   154 1
  221   212   141 1
  222   213   146 1
  223   214   145 1
  224   215   142 1
  225   216   142 1
  226   217   174 1
  227   218   173 1
  228   219   171 1
  229   220   170 1
  230   221   169 1
  231   222   140 1
  232   223   167 1
  233   224   166 1
  234   225   165 1
  235   226   163 1
  236   227   161 1
  237   228   139 1
  238   229   139 1
  239   230   153 1
  240   231   152 1
  241   232   150 1
  242   233   149 1
  243   234   148 1
  244   235   162 1
  245   65    153 1
  246   65    174 1
@<TRIPOS>SUBSTRUCTURE
      1 CLA               1 ****               0 ****  **** 
      2 LUT             138 ****               0 ****  **** 
