@<TRIPOS>MOLECULE
Cpptraj generated mol2 file.
  235   246     2     0     0
SMALL
USER_CHARGES


@<TRIPOS>ATOM
      1 CAA        78.7905   58.2091   34.9973 a2         1 CLA     -0.055900
      2 CAB        78.6212   62.4977   43.7099 c8         1 CLA     -0.148500
      3 CAC        72.1203   58.0759   43.5488 a2         1 CLA     -0.012600
      4 CAD        74.6740   55.7396   36.1630 ck         1 CLA      0.398800
      5 NA         77.8920   58.5423   38.4216 ns         1 CLA     -0.225500
      6 CBA        80.0377   58.3240   34.0748 a2         1 CLA     -0.135000
      7 CBB        79.5549   63.3770   44.1645 c0         1 CLA     -0.395200
      8 CBC        72.1728   56.5512   43.4226 a3         1 CLA     -0.037700
      9 CBD        76.2014   56.0723   35.8965 a1         1 CLA     -0.053900
     10 NB         77.7609   60.1459   40.9312 nm         1 CLA     -0.295700
     11 OBD        74.0249   55.0311   35.4717 o2         1 CLA     -0.494600
     12 CGA        80.5929   56.9807   33.7052 c4         1 CLA      0.827000
     13 CGD        77.0618   54.8561   35.8406 c4         1 CLA      0.655300
     14 ND         75.0326   57.9312   38.9392 nm         1 CLA     -0.291600
     15 CED        77.8948   52.9541   36.9704 a3         1 CLA      0.005400
     16 CHA        76.5166   57.0441   37.0840 cs         1 CLA     -0.123800
     17 CHB        79.6646   59.9773   39.3411 aa         1 CLA     -0.291900
     18 CHC        76.3559   60.6318   42.9128 aa         1 CLA     -0.090400
     19 CHD        73.1770   57.8253   40.5271 aa         1 CLA     -0.052000
     20 CMA        81.2518   57.7781   37.8280 a3         1 CLA     -0.230700
     21 CMB        81.0082   61.8464   41.5379 a3         1 CLA     -0.180800
     22 CMC        74.1898   59.9519   45.0839 a3         1 CLA     -0.134000
     23 CMD        71.8015   56.1311   38.3181 a3         1 CLA     -0.141100
     24 C1         81.8233   55.1332   34.5665 a2         1 CLA      0.023000
     25 C1A        77.7488   57.7004   37.3224 ac         1 CLA     -0.015100
     26 C1B        79.0029   60.4831   40.5193 cr         1 CLA      0.054700
     27 C1C        75.2659   59.8618   42.6849 cn         1 CLA     -0.005600
     28 C1D        73.7694   57.4789   39.2962 ap         1 CLA     -0.047300
     29 O1A        80.3582   56.4155   32.6187 o2         1 CLA     -0.610800
     30 O1D        77.7012   54.5213   34.8413 o2         1 CLA     -0.558200
     31 C2         82.5670   54.9184   35.9027 c8         1 CLA     -0.325100
     32 C2A        78.9883   57.6617   36.4879 a1         1 CLA      0.098600
     33 C2B        79.5780   61.3708   41.4923 cb         1 CLA      0.088500
     34 C2C        74.2233   59.5840   43.6094 cb         1 CLA      0.053700
     35 C2D        73.2014   56.6679   38.2704 cb         1 CLA      0.058900
     36 O2A        81.3525   56.4953   34.7301 o1         1 CLA     -0.437200
     37 O2D        77.0785   54.1520   37.0133 o1         1 CLA     -0.357600
     38 C3         83.8934   54.8140   36.0626 c5         1 CLA      0.031200
     39 C3A        80.0694   58.5486   37.2402 a1         1 CLA      0.166800
     40 C3B        78.6729   61.5413   42.4985 cb         1 CLA      0.035000
     41 C3C        73.3245   58.7507   42.8997 cb         1 CLA     -0.089900
     42 C3D        74.2785   56.4482   37.3654 cb         1 CLA     -0.035900
     43 C4         84.6921   53.5186   35.9916 a3         1 CLA     -0.053300
     44 C4A        79.1576   59.0686   38.4100 ac         1 CLA      0.001800
     45 C4B        77.5072   60.7996   42.1212 cn         1 CLA     -0.020900
     46 C4C        73.7756   58.6060   41.5296 cr         1 CLA     -0.044400
     47 C4D        75.3622   57.2680   37.8103 c6         1 CLA     -0.046000
     48 C5         84.7020   56.1003   36.1874 a2         1 CLA     -0.070400
     49 C6         85.8616   56.3594   37.1871 a2         1 CLA      0.043900
     50 C7         85.4381   56.4652   38.6579 a2         1 CLA     -0.150000
     51 C8         86.5775   57.0992   39.5505 a1         1 CLA      0.064200
     52 C9         87.7928   56.0961   39.5754 a3         1 CLA     -0.259300
     53 C10        86.0787   57.3606   41.0002 a2         1 CLA     -0.071900
     54 C11        86.9370   58.3767   41.8822 a2         1 CLA      0.014500
     55 C12        86.6262   58.3521   43.4229 a2         1 CLA     -0.112100
     56 C13        87.2389   59.5328   44.2164 a1         1 CLA      0.089200
     57 C14        88.7462   59.7727   43.9642 a3         1 CLA     -0.239100
     58 C15        87.1080   59.2218   45.6996 a2         1 CLA     -0.102200
     59 C16        85.8453   58.6367   46.2223 a2         1 CLA      0.023900
     60 C17        85.8249   58.7295   47.7217 a2         1 CLA     -0.105700
     61 C18        84.5118   58.2470   48.4712 a1         1 CLA      0.206800
     62 C19        84.0910   56.7853   48.1585 a3         1 CLA     -0.280100
     63 C20        84.7768   58.4417   49.9713 a3         1 CLA     -0.280100
     64 NC         75.0159   59.2124   41.4877 nx         1 CLA     -0.309200
     65 MG         76.3852   59.0242   39.9559 mg         1 CLA      0.895000
     66 HMD3       71.7740   55.3044   37.5377 dc         1 CLA      0.064300
     67 HMD2       71.6272   55.6972   39.3556 dc         1 CLA      0.064300
     68 HMD1       70.9977   56.8468   38.0987 dc         1 CLA      0.064300
     69 HMC3       74.9667   60.5020   45.6052 dc         1 CLA      0.052100
     70 HMC2       73.3461   60.6100   45.3051 dc         1 CLA      0.052100
     71 HMC1       74.0772   59.0723   45.6849 dc         1 CLA      0.052100
     72 HMB3       81.1016   62.8110   40.9970 dc         1 CLA      0.063600
     73 HMB2       81.3230   62.0319   42.5878 dc         1 CLA      0.063600
     74 HMB1       81.6707   61.1510   41.1008 dc         1 CLA      0.063600
     75 HMA3       82.0458   57.5259   37.1814 dc         1 CLA      0.058300
     76 HMA2       81.7594   58.3970   38.5698 dc         1 CLA      0.058300
     77 HMA1       80.8579   56.9635   38.4409 dc         1 CLA      0.058300
     78 HED3       77.9217   52.7186   38.0365 dc         1 CLA      0.079300
     79 HED2       77.6216   52.1696   36.3148 dc         1 CLA      0.079300
     80 HED1       78.9487   53.2213   36.6588 dc         1 CLA      0.079300
     81 HBC3       72.7885   56.1666   44.2992 dc         1 CLA      0.016300
     82 HBC2       71.1683   56.0987   43.5125 dc         1 CLA      0.016300
     83 HBC1       72.5443   56.2447   42.4113 dc         1 CLA      0.016300
     84 HBB2       79.3915   63.9634   45.1397 da         1 CLA      0.183000
     85 HBB1       80.5131   63.4413   43.6657 da         1 CLA      0.183000
     86 HBA2       79.7683   58.9302   33.1628 dc         1 CLA      0.029400
     87 HBA1       80.8100   58.8330   34.6402 dc         1 CLA      0.029400
     88 HAC2       72.0893   58.3073   44.6276 dc         1 CLA      0.029300
     89 HAC1       71.1957   58.3740   43.0497 dc         1 CLA      0.029300
     90 HAA2       78.0598   57.5912   34.4728 dc         1 CLA      0.028700
     91 HAA1       78.3448   59.1656   35.1211 dc         1 CLA      0.028700
     92 H203       85.1968   59.4272   50.1426 dc         1 CLA      0.065600
     93 H202       83.8419   58.3487   50.4624 dc         1 CLA      0.065600
     94 H201       85.5317   57.7626   50.2794 dc         1 CLA      0.065600
     95 H193       84.8252   56.0873   48.5284 dc         1 CLA      0.065600
     96 H192       83.2026   56.6530   48.8095 dc         1 CLA      0.065600
     97 H191       83.8414   56.5386   47.1703 dc         1 CLA      0.065600
     98 H172       86.6675   58.2106   48.1914 dc         1 CLA      0.027600
     99 H171       85.9500   59.7238   48.0145 dc         1 CLA      0.027600
    100 H162       85.0736   59.2528   45.8480 dc         1 CLA      0.002900
    101 H161       85.6982   57.6408   45.9585 dc         1 CLA      0.002900
    102 H152       87.8082   58.4492   45.9531 dc         1 CLA      0.029100
    103 H151       87.3486   60.1466   46.2332 dc         1 CLA      0.029100
    104 H143       89.2815   58.8498   44.1338 dc         1 CLA      0.063600
    105 H142       88.8585   60.1677   42.9659 dc         1 CLA      0.063600
    106 H141       89.1592   60.3995   44.7202 dc         1 CLA      0.063600
    107 H122       85.5567   58.2947   43.6357 dc         1 CLA      0.032500
    108 H121       87.0239   57.4007   43.8032 dc         1 CLA      0.032500
    109 H112       87.9796   58.1453   41.7858 dc         1 CLA      0.006600
    110 H111       86.6878   59.3105   41.4840 dc         1 CLA      0.006600
    111 H102       85.1095   57.7131   40.8247 dc         1 CLA      0.024100
    112 H101       85.9584   56.4489   41.5540 dc         1 CLA      0.024100
    113 HHD        72.1744   57.4759   40.8134 da         1 CLA      0.174300
    114 HHC        76.3875   60.9867   43.9298 da         1 CLA      0.136800
    115 HHB        80.7355   60.2913   39.2640 da         1 CLA      0.138300
    116 HBD        76.2943   56.5551   34.9132 dc         1 CLA      0.107700
    117 HAB        77.7160   62.5104   44.2676 da         1 CLA      0.155200
    118 H93        88.1442   55.8963   38.5801 dc         1 CLA      0.069500
    119 H92        88.7151   56.4900   40.0569 dc         1 CLA      0.069500
    120 H91        87.4555   55.1876   40.1075 dc         1 CLA      0.069500
    121 H8         86.7645   58.0340   39.0939 dc         1 CLA      0.029300
    122 H72        84.5753   57.1588   38.7140 dc         1 CLA      0.044400
    123 H71        85.1477   55.5074   39.0552 dc         1 CLA      0.044400
    124 H62        86.5610   55.5108   37.0967 dc         1 CLA      0.015600
    125 H61        86.4278   57.2411   36.8059 dc         1 CLA      0.015600
    126 H52        85.0510   56.2886   35.1146 dc         1 CLA      0.033200
    127 H51        84.0037   56.8666   36.2725 dc         1 CLA      0.033200
    128 H43        84.0716   52.6700   36.2239 dc         1 CLA      0.037000
    129 H42        85.0372   53.3257   35.0245 dc         1 CLA      0.037000
    130 H41        85.5194   53.5905   36.7150 dc         1 CLA      0.037000
    131 H3A        80.3617   59.3606   36.5377 dc         1 CLA      0.041100
    132 H2A        79.2204   56.5671   36.4327 dc         1 CLA      0.083100
    133 H2         82.0169   54.9114   36.8144 da         1 CLA      0.180900
    134 H18        83.6834   58.9277   48.1234 dc         1 CLA     -0.003900
    135 H13        86.6510   60.4038   43.9032 dc         1 CLA      0.019700
    136 H12        81.0145   54.4454   34.3859 dc         1 CLA      0.120400
    137 H11        82.5105   55.0311   33.7452 dc         1 CLA      0.120400
    138 C1         69.9995   61.5453   49.9103 Z1         2 LUT      0.509236
    139 C2         68.8178   60.8249   50.6232 Z2         2 LUT     -0.434695
    140 C3         67.8411   61.7412   51.2914 Z3         2 LUT      0.437453
    141 O3         68.0622   61.8532   52.6735 S1         2 LUT     -0.547129
    142 C4         67.6474   63.1204   50.6047 Z4         2 LUT     -0.468603
    143 C5         68.3356   63.3405   49.2573 Z5         2 LUT      0.279246
    144 C6         69.4003   62.5869   48.8454 Z6         2 LUT     -0.305473
    145 C7         69.5485   62.3036   47.3962 Z7         2 LUT      0.069402
    146 C8         70.7442   62.3900   46.8266 Z8         2 LUT     -0.191631
    147 C9         71.0291   62.0632   45.3978 Z9         2 LUT      0.196698
    148 C10        72.1096   62.7773   44.9054 Y1         2 LUT     -0.208611
    149 C11        72.7819   62.6811   43.5754 Y2         2 LUT      0.030784
    150 C12        73.8581   63.5071   43.2491 Y3         2 LUT     -0.220316
    151 C13        74.8220   63.3878   42.1655 Y4         2 LUT      0.215937
    152 C14        75.8941   64.2168   42.1692 Y5         2 LUT     -0.185793
    153 C15        76.9722   64.3260   41.2809 Y6         2 LUT     -0.057835
    154 C16        70.8050   60.3631   49.3470 Y7         2 LUT     -0.405615
    155 C17        70.6213   62.2119   51.1332 Y7         2 LUT     -0.405615
    156 C18        67.6432   64.4168   48.4550 Y9         2 LUT     -0.369639
    157 C19        70.1758   61.0749   44.6121 W1         2 LUT     -0.333362
    158 C20        74.3149   62.6255   40.9751 W2         2 LUT     -0.323439
    159 C21        88.0775   65.7345   35.0045 Z1         2 LUT      0.406104
    160 C22        88.6455   65.0421   33.6888 Z2         2 LUT     -0.404965
    161 C23        88.6396   65.8446   32.4334 Z3         2 LUT      0.391255
    162 O23        89.3162   64.9082   31.5356 S1         2 LUT     -0.528210
    163 C24        87.2311   66.4509   32.2366 W6         2 LUT     -0.258361
    164 C25        86.3484   66.6737   33.2315 Z5         2 LUT      0.133546
    165 C26        86.5240   66.1326   34.7404 W8         2 LUT     -0.147008
    166 C27        85.9709   67.0152   35.7866 Z7         2 LUT      0.023843
    167 C28        84.8063   66.5970   36.3700 Z8         2 LUT     -0.216987
    168 C29        84.2181   66.9852   37.5888 Z9         2 LUT      0.206524
    169 C30        83.1126   66.3068   37.9926 Y1         2 LUT     -0.215556
    170 C31        82.2790   66.5394   39.1657 Y2         2 LUT      0.025142
    171 C32        81.2465   65.7418   39.5404 Y3         2 LUT     -0.212209
    172 C33        80.2769   65.9137   40.6262 Y4         2 LUT      0.240937
    173 C34        79.1586   65.1212   40.6124 Y5         2 LUT     -0.218862
    174 C35        78.0705   65.0367   41.6037 Y6         2 LUT     -0.023547
    175 C36        89.1416   66.8855   35.3973 Y7         2 LUT     -0.393485
    176 C37        88.1255   64.6509   36.1191 Y7         2 LUT     -0.393485
    177 C38        84.9342   67.2404   32.9960 Y9         2 LUT     -0.387526
    178 C39        84.7611   68.0959   38.4310 W1         2 LUT     -0.322618
    179 C40        80.7203   66.6799   41.8600 W2         2 LUT     -0.358472
    180 H403       80.6185   67.8042   41.7105 R7         2 LUT      0.097720
    181 H402       80.0259   66.4898   42.6876 R7         2 LUT      0.097720
    182 H401       81.7297   66.4066   42.2465 R7         2 LUT      0.097720
    183 H393       84.0260   68.7598   38.8309 R4         2 LUT      0.082505
    184 H392       85.3995   67.6921   39.2330 R4         2 LUT      0.082505
    185 H391       85.4514   68.6819   37.8430 R4         2 LUT      0.082505
    186 H383       85.1066   67.6856   31.9715 R1         2 LUT      0.104030
    187 H382       84.2428   66.3225   32.8486 R1         2 LUT      0.104030
    188 H381       84.4679   67.9260   33.7515 R1         2 LUT      0.104030
    189 H373       87.6031   63.6569   36.0540 T4         2 LUT      0.089537
    190 H372       89.1547   64.4391   36.3745 T4         2 LUT      0.089537
    191 H371       87.5887   65.2092   36.9592 T4         2 LUT      0.089537
    192 H363       90.1765   66.5511   35.4211 T4         2 LUT      0.089537
    193 H362       89.0273   67.6390   34.5699 T4         2 LUT      0.089537
    194 H361       88.9090   67.4030   36.4158 T4         2 LUT      0.089537
    195 H222       89.6277   64.7238   34.0661 U2         2 LUT      0.127376
    196 H221       88.0054   64.1797   33.4377 U2         2 LUT      0.127376
    197 H203       73.4962   61.8687   41.1459 R7         2 LUT      0.087068
    198 H202       73.8960   63.3540   40.2793 R7         2 LUT      0.087068
    199 H201       75.0895   61.9701   40.5522 R7         2 LUT      0.087068
    200 H193       69.3565   61.4764   44.1116 R4         2 LUT      0.089716
    201 H192       70.6887   60.6495   43.7396 R4         2 LUT      0.089716
    202 H191       69.7886   60.2011   45.2203 R4         2 LUT      0.089716
    203 H183       66.9666   64.0027   47.7823 R1         2 LUT      0.094572
    204 H182       67.1022   65.1077   49.1270 R1         2 LUT      0.094572
    205 H181       68.3386   64.9994   47.8493 R1         2 LUT      0.094572
    206 H173       70.0637   63.0069   51.6039 T4         2 LUT      0.093752
    207 H172       71.0665   61.5565   51.8687 T4         2 LUT      0.093752
    208 H171       71.5319   62.6552   50.7468 T4         2 LUT      0.093752
    209 H163       71.0105   59.5917   50.0766 T4         2 LUT      0.093752
    210 H162       70.3606   59.9051   48.4625 T4         2 LUT      0.093752
    211 H161       71.8571   60.6109   49.0684 T4         2 LUT      0.093752
    212 HO3        67.2467   62.2309   53.1181 Q1         2 LUT      0.300121
    213 H8         71.5646   62.6878   47.4508 U7         2 LUT      0.080784
    214 H7         68.6543   61.9370   46.8202 U6         2 LUT      0.042190
    215 H42        66.5315   63.2955   50.6248 U5         2 LUT      0.145166
    216 H41        68.1666   63.9043   51.1762 U5         2 LUT      0.145166
    217 H35        77.9600   65.5393   42.5370 T3         2 LUT      0.077919
    218 H34        79.1931   64.4057   39.8021 T2         2 LUT      0.073626
    219 H32        81.1305   64.8285   38.9529 T1         2 LUT      0.092510
    220 H31        82.4646   67.4634   39.7358 U9         2 LUT      0.070048
    221 H30        82.7303   65.5169   37.3707 U8         2 LUT      0.085442
    222 H3         66.8838   61.2226   51.1179 U3         2 LUT     -0.031596
    223 H28        84.3993   65.5975   36.0356 U7         2 LUT      0.084728
    224 H27        86.3008   68.0325   36.0034 U6         2 LUT      0.087291
    225 H26        86.0702   65.1232   34.7248 Q6         2 LUT      0.075325
    226 H24        86.9188   66.8081   31.2703 Q5         2 LUT      0.094482
    227 H23        89.3617   66.6444   32.6493 U3         2 LUT     -0.024869
    228 H22        68.2659   60.3046   49.8759 U2         2 LUT      0.127376
    229 H21        69.2047   60.1838   51.4260 U2         2 LUT      0.127376
    230 H15        77.0329   63.7066   40.3830 T3         2 LUT      0.093200
    231 H14        75.9143   64.9422   42.8968 T2         2 LUT      0.068865
    232 H12        74.1127   64.3468   43.9570 T1         2 LUT      0.095507
    233 H11        72.4431   61.9386   42.9520 U9         2 LUT      0.068930
    234 H10        72.5586   63.4724   45.5674 U8         2 LUT      0.083911
    235 H1         89.1692   65.1101   30.5886 Q1         2 LUT      0.297311
@<TRIPOS>BOND
    1     6     1 1
    2     7     2 1
    3     8     3 1
    4     9     4 1
    5    11     4 1
    6    12     6 1
    7    13     9 1
    8    16     9 1
    9    25     5 1
   10    25    16 1
   11    26    10 1
   12    26    17 1
   13    27    18 1
   14    28    14 1
   15    28    19 1
   16    29    12 1
   17    30    13 1
   18    31    24 1
   19    32     1 1
   20    32    25 1
   21    33    21 1
   22    33    26 1
   23    34    22 1
   24    34    27 1
   25    35    23 1
   26    35    28 1
   27    36    12 1
   28    36    24 1
   29    37    13 1
   30    37    15 1
   31    38    31 1
   32    39    20 1
   33    39    32 1
   34    40     2 1
   35    40    33 1
   36    41     3 1
   37    41    34 1
   38    42     4 1
   39    42    35 1
   40    43    38 1
   41    44     5 1
   42    44    17 1
   43    44    39 1
   44    45    10 1
   45    45    18 1
   46    45    40 1
   47    46    19 1
   48    46    41 1
   49    47    14 1
   50    47    16 1
   51    47    42 1
   52    48    38 1
   53    49    48 1
   54    50    49 1
   55    51    50 1
   56    52    51 1
   57    53    51 1
   58    54    53 1
   59    55    54 1
   60    56    55 1
   61    57    56 1
   62    58    56 1
   63    59    58 1
   64    60    59 1
   65    61    60 1
   66    62    61 1
   67    63    61 1
   68    64    27 1
   69    64    46 1
   70    65     5 1
   71    65    10 1
   72    65    64 1
   73    65    14 1
   74    66    23 1
   75    67    23 1
   76    68    23 1
   77    69    22 1
   78    70    22 1
   79    71    22 1
   80    72    21 1
   81    73    21 1
   82    74    21 1
   83    75    20 1
   84    76    20 1
   85    77    20 1
   86    78    15 1
   87    79    15 1
   88    80    15 1
   89    81     8 1
   90    82     8 1
   91    83     8 1
   92    84     7 1
   93    85     7 1
   94    86     6 1
   95    87     6 1
   96    88     3 1
   97    89     3 1
   98    90     1 1
   99    91     1 1
  100    92    63 1
  101    93    63 1
  102    94    63 1
  103    95    62 1
  104    96    62 1
  105    97    62 1
  106    98    60 1
  107    99    60 1
  108   100    59 1
  109   101    59 1
  110   102    58 1
  111   103    58 1
  112   104    57 1
  113   105    57 1
  114   106    57 1
  115   107    55 1
  116   108    55 1
  117   109    54 1
  118   110    54 1
  119   111    53 1
  120   112    53 1
  121   113    19 1
  122   114    18 1
  123   115    17 1
  124   116     9 1
  125   117     2 1
  126   118    52 1
  127   119    52 1
  128   120    52 1
  129   121    51 1
  130   122    50 1
  131   123    50 1
  132   124    49 1
  133   125    49 1
  134   126    48 1
  135   127    48 1
  136   128    43 1
  137   129    43 1
  138   130    43 1
  139   131    39 1
  140   132    32 1
  141   133    31 1
  142   134    61 1
  143   135    56 1
  144   136    24 1
  145   137    24 1
  146   139   138 1
  147   140   139 1
  148   141   140 1
  149   142   140 1
  150   143   142 1
  151   144   138 1
  152   144   143 1
  153   145   144 1
  154   146   145 1
  155   147   146 1
  156   148   147 1
  157   149   148 1
  158   150   149 1
  159   151   150 1
  160   152   151 1
  161   153   152 1
  162   154   138 1
  163   155   138 1
  164   156   143 1
  165   157   147 1
  166   158   151 1
  167   160   159 1
  168   161   160 1
  169   162   161 1
  170   163   161 1
  171   164   163 1
  172   165   159 1
  173   165   164 1
  174   166   165 1
  175   167   166 1
  176   168   167 1
  177   169   168 1
  178   170   169 1
  179   171   170 1
  180   172   171 1
  181   173   172 1
  182   174   153 1
  183   174   173 1
  184   175   159 1
  185   176   159 1
  186   177   164 1
  187   178   168 1
  188   179   172 1
  189   180   179 1
  190   181   179 1
  191   182   179 1
  192   183   178 1
  193   184   178 1
  194   185   178 1
  195   186   177 1
  196   187   177 1
  197   188   177 1
  198   189   176 1
  199   190   176 1
  200   191   176 1
  201   192   175 1
  202   193   175 1
  203   194   175 1
  204   195   160 1
  205   196   160 1
  206   197   158 1
  207   198   158 1
  208   199   158 1
  209   200   157 1
  210   201   157 1
  211   202   157 1
  212   203   156 1
  213   204   156 1
  214   205   156 1
  215   206   155 1
  216   207   155 1
  217   208   155 1
  218   209   154 1
  219   210   154 1
  220   211   154 1
  221   212   141 1
  222   213   146 1
  223   214   145 1
  224   215   142 1
  225   216   142 1
  226   217   174 1
  227   218   173 1
  228   219   171 1
  229   220   170 1
  230   221   169 1
  231   222   140 1
  232   223   167 1
  233   224   166 1
  234   225   165 1
  235   226   163 1
  236   227   161 1
  237   228   139 1
  238   229   139 1
  239   230   153 1
  240   231   152 1
  241   232   150 1
  242   233   149 1
  243   234   148 1
  244   235   162 1
  245   65    153 1
  246   65    174 1
@<TRIPOS>SUBSTRUCTURE
      1 CLA               1 ****               0 ****  **** 
      2 LUT             138 ****               0 ****  **** 
