@<TRIPOS>MOLECULE
Cpptraj generated mol2 file.
  235   246     2     0     0
SMALL
USER_CHARGES


@<TRIPOS>ATOM
      1 CAA        76.5489   57.8132   33.3560 a2         1 CLA     -0.055900
      2 CAB        76.9254   61.5078   42.5252 c8         1 CLA     -0.148500
      3 CAC        69.8121   57.8756   41.8171 a2         1 CLA     -0.012600
      4 CAD        72.3517   55.4148   34.8887 ck         1 CLA      0.398800
      5 NA         75.7096   58.4098   36.7968 ns         1 CLA     -0.225500
      6 CBA        77.8265   57.6883   32.4934 a2         1 CLA     -0.135000
      7 CBB        78.1051   61.3436   43.1708 c0         1 CLA     -0.395200
      8 CBC        70.1463   56.3546   41.8099 a3         1 CLA     -0.037700
      9 CBD        73.9042   55.8111   34.5739 a1         1 CLA     -0.053900
     10 NB         75.5929   59.8225   39.4971 nm         1 CLA     -0.295700
     11 OBD        71.6054   54.6613   34.2443 o2         1 CLA     -0.494600
     12 CGA        78.2489   56.2316   32.1621 c4         1 CLA      0.827000
     13 CGD        74.7164   54.5768   34.4092 c4         1 CLA      0.655300
     14 ND         72.8559   57.6620   37.4975 nm         1 CLA     -0.291600
     15 CED        75.8403   52.7543   35.4873 a3         1 CLA      0.005400
     16 CHA        74.3483   56.8655   35.6303 cs         1 CLA     -0.123800
     17 CHB        77.5144   59.6350   37.8757 aa         1 CLA     -0.291900
     18 CHC        74.3602   60.1189   41.5888 aa         1 CLA     -0.090400
     19 CHD        70.8856   57.9307   38.9377 aa         1 CLA     -0.052000
     20 CMA        79.0537   57.5317   36.2744 a3         1 CLA     -0.230700
     21 CMB        78.9722   61.2477   39.9973 a3         1 CLA     -0.180800
     22 CMC        72.0615   59.3163   43.6439 a3         1 CLA     -0.134000
     23 CMD        69.5801   55.8913   36.8740 a3         1 CLA     -0.141100
     24 C1         79.2189   54.3582   33.1600 a2         1 CLA      0.023000
     25 C1A        75.5283   57.5781   35.8044 ac         1 CLA     -0.015100
     26 C1B        76.8637   60.0965   39.0671 cr         1 CLA      0.054700
     27 C1C        73.1681   59.5055   41.2461 cn         1 CLA     -0.005600
     28 C1D        71.5600   57.3438   37.8441 ap         1 CLA     -0.047300
     29 O1A        77.6668   55.5382   31.2994 o2         1 CLA     -0.610800
     30 O1D        75.4467   54.3304   33.4657 o2         1 CLA     -0.558200
     31 C2         79.7560   54.0029   34.5073 c8         1 CLA     -0.325100
     32 C2A        76.7974   57.4546   34.8360 a1         1 CLA      0.098600
     33 C2B        77.5819   60.7969   40.1064 cb         1 CLA      0.088500
     34 C2C        72.0689   59.2039   42.1556 cb         1 CLA      0.053700
     35 C2D        70.9847   56.4704   36.8899 cb         1 CLA      0.058900
     36 O2A        79.1060   55.7884   33.1646 o1         1 CLA     -0.437200
     37 O2D        74.7826   53.8167   35.5589 o1         1 CLA     -0.357600
     38 C3         80.5989   53.0067   34.8459 c5         1 CLA      0.031200
     39 C3A        77.8109   58.3059   35.6986 a1         1 CLA      0.166800
     40 C3B        76.7100   60.9028   41.1961 cb         1 CLA      0.035000
     41 C3C        71.0422   58.6442   41.3266 cb         1 CLA     -0.089900
     42 C3D        72.0157   56.2281   35.9953 cb         1 CLA     -0.035900
     43 C4         80.0952   51.5924   35.1049 a3         1 CLA     -0.053300
     44 C4A        76.9819   58.7918   36.8905 ac         1 CLA      0.001800
     45 C4B        75.4628   60.2855   40.7789 cn         1 CLA     -0.020900
     46 C4C        71.5514   58.5068   40.0195 cr         1 CLA     -0.044400
     47 C4D        73.1629   56.9713   36.4417 c6         1 CLA     -0.046000
     48 C5         82.0674   53.2815   34.7955 a2         1 CLA     -0.070400
     49 C6         82.5716   54.6709   35.1491 a2         1 CLA      0.043900
     50 C7         82.5371   54.9712   36.6315 a2         1 CLA     -0.150000
     51 C8         82.7982   56.4836   37.0417 a1         1 CLA      0.064200
     52 C9         84.0229   57.0716   36.3388 a3         1 CLA     -0.259300
     53 C10        82.8815   56.7078   38.5389 a2         1 CLA     -0.071900
     54 C11        81.5408   56.5615   39.3852 a2         1 CLA      0.014500
     55 C12        81.8441   56.9322   40.8011 a2         1 CLA     -0.112100
     56 C13        80.6921   56.5777   41.8090 a1         1 CLA      0.089200
     57 C14        79.3196   57.2850   41.4643 a3         1 CLA     -0.239100
     58 C15        81.1836   56.8418   43.2892 a2         1 CLA     -0.102200
     59 C16        81.3151   58.3282   43.7267 a2         1 CLA      0.023900
     60 C17        81.3153   58.6228   45.1636 a2         1 CLA     -0.105700
     61 C18        81.8072   60.0805   45.6036 a1         1 CLA      0.206800
     62 C19        83.3363   60.3191   45.4819 a3         1 CLA     -0.280100
     63 C20        80.9789   61.2249   45.0432 a3         1 CLA     -0.280100
     64 NC         72.8111   59.0319   40.0173 nx         1 CLA     -0.309200
     65 MG         74.1608   58.8423   38.3575 mg         1 CLA      0.895000
     66 HMD3       69.4168   55.3920   37.8209 dc         1 CLA      0.064300
     67 HMD2       68.9500   56.7259   36.7387 dc         1 CLA      0.064300
     68 HMD1       69.4885   55.2363   35.9690 dc         1 CLA      0.064300
     69 HMC3       71.7292   60.3096   44.0298 dc         1 CLA      0.052100
     70 HMC2       71.5507   58.4992   44.1119 dc         1 CLA      0.052100
     71 HMC1       73.0866   59.0875   43.6967 dc         1 CLA      0.052100
     72 HMB3       79.1895   62.1829   40.5902 dc         1 CLA      0.063600
     73 HMB2       79.6410   60.4104   39.9983 dc         1 CLA      0.063600
     74 HMB1       79.1241   61.6740   38.9728 dc         1 CLA      0.063600
     75 HMA3       79.5872   57.0937   35.4525 dc         1 CLA      0.058300
     76 HMA2       79.6385   58.2296   36.8552 dc         1 CLA      0.058300
     77 HMA1       78.6447   56.8358   36.9886 dc         1 CLA      0.058300
     78 HED3       75.7493   52.1505   36.3901 dc         1 CLA      0.079300
     79 HED2       75.4961   52.0978   34.6142 dc         1 CLA      0.079300
     80 HED1       76.8593   53.1182   35.2980 dc         1 CLA      0.079300
     81 HBC3       69.2835   55.7539   42.0117 dc         1 CLA      0.016300
     82 HBC2       70.4162   56.0238   40.7962 dc         1 CLA      0.016300
     83 HBC1       71.0450   56.1416   42.4734 dc         1 CLA      0.016300
     84 HBB2       78.3347   61.8416   44.1234 da         1 CLA      0.183000
     85 HBB1       78.8922   60.6778   42.6990 da         1 CLA      0.183000
     86 HBA2       77.6508   58.3673   31.6496 dc         1 CLA      0.029400
     87 HBA1       78.6248   58.1980   33.0410 dc         1 CLA      0.029400
     88 HAC2       69.4676   58.1834   42.8289 dc         1 CLA      0.029300
     89 HAC1       69.0204   58.0831   41.1920 dc         1 CLA      0.029300
     90 HAA2       75.7662   57.1668   33.0657 dc         1 CLA      0.028700
     91 HAA1       76.2726   58.8529   33.3884 dc         1 CLA      0.028700
     92 H203       81.2124   61.2315   44.0336 dc         1 CLA      0.065600
     93 H202       79.9454   60.9806   45.0923 dc         1 CLA      0.065600
     94 H201       81.2458   62.2297   45.4224 dc         1 CLA      0.065600
     95 H193       84.0748   59.6461   45.9230 dc         1 CLA      0.065600
     96 H192       83.5312   60.3438   44.4179 dc         1 CLA      0.065600
     97 H191       83.4666   61.3040   45.9079 dc         1 CLA      0.065600
     98 H172       80.3728   58.4622   45.5593 dc         1 CLA      0.027600
     99 H171       81.9638   57.9050   45.6831 dc         1 CLA      0.027600
    100 H162       82.1997   58.7884   43.3351 dc         1 CLA      0.002900
    101 H161       80.4490   58.8460   43.2661 dc         1 CLA      0.002900
    102 H152       80.4592   56.3178   43.9086 dc         1 CLA      0.029100
    103 H151       82.2221   56.4550   43.4280 dc         1 CLA      0.029100
    104 H143       78.8376   56.9500   40.5364 dc         1 CLA      0.063600
    105 H142       78.5586   57.0635   42.2271 dc         1 CLA      0.063600
    106 H141       79.4444   58.2985   41.3571 dc         1 CLA      0.063600
    107 H122       82.8510   56.6081   41.1704 dc         1 CLA      0.032500
    108 H121       81.9115   57.9711   40.8014 dc         1 CLA      0.032500
    109 H112       80.6752   57.1914   39.0518 dc         1 CLA      0.006600
    110 H111       81.2165   55.4935   39.4408 dc         1 CLA      0.006600
    111 H102       83.6676   56.1147   38.9883 dc         1 CLA      0.024100
    112 H101       83.2251   57.7333   38.7515 dc         1 CLA      0.024100
    113 HHD        69.8823   57.5739   38.9422 da         1 CLA      0.174300
    114 HHC        74.4559   60.4870   42.6179 da         1 CLA      0.136800
    115 HHB        78.5335   60.0123   37.6780 da         1 CLA      0.138300
    116 HBD        73.8723   56.3029   33.5717 dc         1 CLA      0.107700
    117 HAB        76.2650   62.2943   42.9553 da         1 CLA      0.155200
    118 H93        84.8932   56.4843   36.4669 dc         1 CLA      0.069500
    119 H92        83.7319   57.1773   35.2826 dc         1 CLA      0.069500
    120 H91        84.1015   58.0873   36.7039 dc         1 CLA      0.069500
    121 H8         82.0380   57.0937   36.6620 dc         1 CLA      0.029300
    122 H72        81.5357   54.5562   36.9065 dc         1 CLA      0.044400
    123 H71        83.2211   54.2871   37.1811 dc         1 CLA      0.044400
    124 H62        83.5937   54.8927   34.7957 dc         1 CLA      0.015600
    125 H61        81.9271   55.4855   34.8400 dc         1 CLA      0.015600
    126 H52        82.4668   52.5702   35.5109 dc         1 CLA      0.033200
    127 H51        82.3273   53.0343   33.8059 dc         1 CLA      0.033200
    128 H43        80.8176   50.9222   34.5484 dc         1 CLA      0.037000
    129 H42        80.0771   51.3034   36.1298 dc         1 CLA      0.037000
    130 H41        79.0053   51.5284   34.7893 dc         1 CLA      0.037000
    131 H3A        78.1792   59.1426   35.1737 dc         1 CLA      0.041100
    132 H2A        77.1564   56.4205   34.9336 dc         1 CLA      0.083100
    133 H2         79.3882   54.6621   35.2837 da         1 CLA      0.180900
    134 H18        81.6201   60.0368   46.6767 dc         1 CLA     -0.003900
    135 H13        80.5111   55.4790   41.7577 dc         1 CLA      0.019700
    136 H12        78.2002   53.8142   33.1632 dc         1 CLA      0.120400
    137 H11        79.9458   54.0199   32.4530 dc         1 CLA      0.120400
    138 C1         66.8590   61.5169   49.4345 Z1         2 LUT      0.509236
    139 C2         67.1559   62.8762   50.2809 Z2         2 LUT     -0.434695
    140 C3         65.9919   63.7809   50.5380 Z3         2 LUT      0.437453
    141 O3         66.4793   65.1146   50.5755 S1         2 LUT     -0.547129
    142 C4         64.9146   63.6724   49.3930 Z4         2 LUT     -0.468603
    143 C5         65.5634   63.1470   48.0900 Z5         2 LUT      0.279246
    144 C6         66.2979   62.0536   48.0326 Z6         2 LUT     -0.305473
    145 C7         67.0221   61.6737   46.8257 Z7         2 LUT      0.069402
    146 C8         68.1327   62.1931   46.2762 Z8         2 LUT     -0.191631
    147 C9         68.6263   61.7820   44.9248 Z9         2 LUT      0.196698
    148 C10        69.7653   62.3679   44.5491 Y1         2 LUT     -0.208611
    149 C11        70.4515   62.3546   43.2628 Y2         2 LUT      0.030784
    150 C12        71.5494   63.1396   42.9607 Y3         2 LUT     -0.220316
    151 C13        72.3431   63.1931   41.6992 Y4         2 LUT      0.215937
    152 C14        73.6282   63.7070   41.6178 Y5         2 LUT     -0.185793
    153 C15        74.5666   63.6898   40.5665 Y6         2 LUT     -0.057835
    154 C16        65.7765   60.7432   50.1892 Y7         2 LUT     -0.405615
    155 C17        68.0820   60.5455   49.4890 Y7         2 LUT     -0.405615
    156 C18        65.4312   64.1536   47.0017 Y9         2 LUT     -0.369639
    157 C19        67.8773   60.7743   44.0447 W1         2 LUT     -0.333362
    158 C20        71.6875   62.6517   40.4984 W2         2 LUT     -0.323439
    159 C21        85.9983   64.2951   34.2991 Z1         2 LUT      0.406104
    160 C22        86.5874   63.7170   32.9860 Z2         2 LUT     -0.404965
    161 C23        86.9501   64.8415   32.0292 Z3         2 LUT      0.391255
    162 O23        87.6134   64.3053   30.9157 S1         2 LUT     -0.528210
    163 C24        85.8656   65.8261   31.7761 W6         2 LUT     -0.258361
    164 C25        84.8400   65.9835   32.6168 Z5         2 LUT      0.133546
    165 C26        84.5468   64.9870   33.7683 W8         2 LUT     -0.147008
    166 C27        83.8623   65.7240   34.9205 Z7         2 LUT      0.023843
    167 C28        82.7393   65.2655   35.5249 Z8         2 LUT     -0.216987
    168 C29        82.1129   65.7166   36.7826 Z9         2 LUT      0.206524
    169 C30        81.0345   65.0507   37.2861 Y1         2 LUT     -0.215556
    170 C31        80.2528   65.4326   38.3773 Y2         2 LUT      0.025142
    171 C32        79.0688   64.7900   38.6433 Y3         2 LUT     -0.212209
    172 C33        78.0838   64.9873   39.7238 Y4         2 LUT      0.240937
    173 C34        76.8416   64.3068   39.6328 Y5         2 LUT     -0.218862
    174 C35        75.7837   64.3051   40.6092 Y6         2 LUT     -0.023547
    175 C36        86.9575   65.2900   35.0443 Y7         2 LUT     -0.393485
    176 C37        85.7299   63.1272   35.2973 Y7         2 LUT     -0.393485
    177 C38        83.7884   66.9214   32.1647 Y9         2 LUT     -0.387526
    178 C39        82.6905   66.9348   37.5025 W1         2 LUT     -0.322618
    179 C40        78.4953   66.0898   40.7305 W2         2 LUT     -0.358472
    180 H403       77.8667   66.1356   41.5890 R7         2 LUT      0.097720
    181 H402       79.4448   65.8095   41.0762 R7         2 LUT      0.097720
    182 H401       78.5695   67.0944   40.3405 R7         2 LUT      0.097720
    183 H393       83.6284   66.7299   37.9787 R4         2 LUT      0.082505
    184 H392       82.9724   67.7618   36.8405 R4         2 LUT      0.082505
    185 H391       81.9568   67.4354   38.2020 R4         2 LUT      0.082505
    186 H383       84.0841   67.6149   31.2975 R1         2 LUT      0.104030
    187 H382       82.9451   66.3103   31.8438 R1         2 LUT      0.104030
    188 H381       83.4242   67.5826   32.9349 R1         2 LUT      0.104030
    189 H373       85.2487   62.2483   34.8598 T4         2 LUT      0.089537
    190 H372       86.7392   62.6965   35.6976 T4         2 LUT      0.089537
    191 H371       85.1984   63.5259   36.1764 T4         2 LUT      0.089537
    192 H363       86.6192   65.2866   36.1137 T4         2 LUT      0.089537
    193 H362       88.0029   64.9648   35.0747 T4         2 LUT      0.089537
    194 H361       86.9101   66.3141   34.6188 T4         2 LUT      0.089537
    195 H222       87.5092   63.3083   33.2943 U2         2 LUT      0.127376
    196 H221       85.9311   63.0289   32.4701 U2         2 LUT      0.127376
    197 H203       71.6047   61.5139   40.5296 R7         2 LUT      0.087068
    198 H202       70.6824   63.0351   40.3516 R7         2 LUT      0.087068
    199 H201       72.1229   62.7071   39.5542 R7         2 LUT      0.087068
    200 H193       66.9764   61.0873   43.5569 R4         2 LUT      0.089716
    201 H192       68.6028   60.3652   43.2732 R4         2 LUT      0.089716
    202 H191       67.5286   59.9048   44.6109 R4         2 LUT      0.089716
    203 H183       65.5068   63.7832   46.0457 R1         2 LUT      0.094572
    204 H182       64.3626   64.5476   46.9105 R1         2 LUT      0.094572
    205 H181       66.2259   64.9057   47.1238 R1         2 LUT      0.094572
    206 H173       68.8868   61.1333   49.0739 T4         2 LUT      0.093752
    207 H172       68.5784   60.2642   50.3876 T4         2 LUT      0.093752
    208 H171       67.9958   59.6867   48.7823 T4         2 LUT      0.093752
    209 H163       64.8352   61.2267   50.4625 T4         2 LUT      0.093752
    210 H162       65.4137   59.7741   49.7129 T4         2 LUT      0.093752
    211 H161       66.2800   60.3812   51.1282 T4         2 LUT      0.093752
    212 HO3        65.8933   65.5602   51.1046 Q1         2 LUT      0.300121
    213 H8         68.6431   63.0332   46.8327 U7         2 LUT      0.080784
    214 H7         66.5517   60.7733   46.3740 U6         2 LUT      0.042190
    215 H42        64.0207   63.0902   49.5902 U5         2 LUT      0.145166
    216 H41        64.5119   64.6604   49.2688 U5         2 LUT      0.145166
    217 H35        75.9433   64.8870   41.4831 T3         2 LUT      0.077919
    218 H34        76.6419   63.8195   38.6939 T2         2 LUT      0.073626
    219 H32        78.6168   64.0975   37.9584 T1         2 LUT      0.092510
    220 H31        80.5493   66.2250   39.0117 U9         2 LUT      0.070048
    221 H30        80.7044   64.1404   36.8057 U8         2 LUT      0.085442
    222 H3         65.4416   63.4344   51.4388 U3         2 LUT     -0.031596
    223 H28        82.1884   64.5736   34.9282 U7         2 LUT      0.084728
    224 H27        84.3401   66.5332   35.4240 U6         2 LUT      0.087291
    225 H26        83.8716   64.2533   33.2627 Q6         2 LUT      0.075325
    226 H24        85.9719   66.3873   30.9598 Q5         2 LUT      0.094482
    227 H23        87.7920   65.4048   32.3691 U3         2 LUT     -0.024869
    228 H22        67.5660   62.7157   51.2696 U2         2 LUT      0.127376
    229 H21        67.9352   63.4544   49.6838 U2         2 LUT      0.127376
    230 H15        74.4072   63.1139   39.6659 T3         2 LUT      0.093200
    231 H14        73.9965   64.1673   42.5041 T2         2 LUT      0.068865
    232 H12        71.9687   63.6848   43.7460 T1         2 LUT      0.095507
    233 H11        69.9378   61.7581   42.5628 U9         2 LUT      0.068930
    234 H10        70.2945   63.0350   45.2203 U8         2 LUT      0.083911
    235 H1         87.0125   63.8719   30.3446 Q1         2 LUT      0.297311
@<TRIPOS>BOND
    1     6     1 1
    2     7     2 1
    3     8     3 1
    4     9     4 1
    5    11     4 1
    6    12     6 1
    7    13     9 1
    8    16     9 1
    9    25     5 1
   10    25    16 1
   11    26    10 1
   12    26    17 1
   13    27    18 1
   14    28    14 1
   15    28    19 1
   16    29    12 1
   17    30    13 1
   18    31    24 1
   19    32     1 1
   20    32    25 1
   21    33    21 1
   22    33    26 1
   23    34    22 1
   24    34    27 1
   25    35    23 1
   26    35    28 1
   27    36    12 1
   28    36    24 1
   29    37    13 1
   30    37    15 1
   31    38    31 1
   32    39    20 1
   33    39    32 1
   34    40     2 1
   35    40    33 1
   36    41     3 1
   37    41    34 1
   38    42     4 1
   39    42    35 1
   40    43    38 1
   41    44     5 1
   42    44    17 1
   43    44    39 1
   44    45    10 1
   45    45    18 1
   46    45    40 1
   47    46    19 1
   48    46    41 1
   49    47    14 1
   50    47    16 1
   51    47    42 1
   52    48    38 1
   53    49    48 1
   54    50    49 1
   55    51    50 1
   56    52    51 1
   57    53    51 1
   58    54    53 1
   59    55    54 1
   60    56    55 1
   61    57    56 1
   62    58    56 1
   63    59    58 1
   64    60    59 1
   65    61    60 1
   66    62    61 1
   67    63    61 1
   68    64    27 1
   69    64    46 1
   70    65     5 1
   71    65    10 1
   72    65    64 1
   73    65    14 1
   74    66    23 1
   75    67    23 1
   76    68    23 1
   77    69    22 1
   78    70    22 1
   79    71    22 1
   80    72    21 1
   81    73    21 1
   82    74    21 1
   83    75    20 1
   84    76    20 1
   85    77    20 1
   86    78    15 1
   87    79    15 1
   88    80    15 1
   89    81     8 1
   90    82     8 1
   91    83     8 1
   92    84     7 1
   93    85     7 1
   94    86     6 1
   95    87     6 1
   96    88     3 1
   97    89     3 1
   98    90     1 1
   99    91     1 1
  100    92    63 1
  101    93    63 1
  102    94    63 1
  103    95    62 1
  104    96    62 1
  105    97    62 1
  106    98    60 1
  107    99    60 1
  108   100    59 1
  109   101    59 1
  110   102    58 1
  111   103    58 1
  112   104    57 1
  113   105    57 1
  114   106    57 1
  115   107    55 1
  116   108    55 1
  117   109    54 1
  118   110    54 1
  119   111    53 1
  120   112    53 1
  121   113    19 1
  122   114    18 1
  123   115    17 1
  124   116     9 1
  125   117     2 1
  126   118    52 1
  127   119    52 1
  128   120    52 1
  129   121    51 1
  130   122    50 1
  131   123    50 1
  132   124    49 1
  133   125    49 1
  134   126    48 1
  135   127    48 1
  136   128    43 1
  137   129    43 1
  138   130    43 1
  139   131    39 1
  140   132    32 1
  141   133    31 1
  142   134    61 1
  143   135    56 1
  144   136    24 1
  145   137    24 1
  146   139   138 1
  147   140   139 1
  148   141   140 1
  149   142   140 1
  150   143   142 1
  151   144   138 1
  152   144   143 1
  153   145   144 1
  154   146   145 1
  155   147   146 1
  156   148   147 1
  157   149   148 1
  158   150   149 1
  159   151   150 1
  160   152   151 1
  161   153   152 1
  162   154   138 1
  163   155   138 1
  164   156   143 1
  165   157   147 1
  166   158   151 1
  167   160   159 1
  168   161   160 1
  169   162   161 1
  170   163   161 1
  171   164   163 1
  172   165   159 1
  173   165   164 1
  174   166   165 1
  175   167   166 1
  176   168   167 1
  177   169   168 1
  178   170   169 1
  179   171   170 1
  180   172   171 1
  181   173   172 1
  182   174   153 1
  183   174   173 1
  184   175   159 1
  185   176   159 1
  186   177   164 1
  187   178   168 1
  188   179   172 1
  189   180   179 1
  190   181   179 1
  191   182   179 1
  192   183   178 1
  193   184   178 1
  194   185   178 1
  195   186   177 1
  196   187   177 1
  197   188   177 1
  198   189   176 1
  199   190   176 1
  200   191   176 1
  201   192   175 1
  202   193   175 1
  203   194   175 1
  204   195   160 1
  205   196   160 1
  206   197   158 1
  207   198   158 1
  208   199   158 1
  209   200   157 1
  210   201   157 1
  211   202   157 1
  212   203   156 1
  213   204   156 1
  214   205   156 1
  215   206   155 1
  216   207   155 1
  217   208   155 1
  218   209   154 1
  219   210   154 1
  220   211   154 1
  221   212   141 1
  222   213   146 1
  223   214   145 1
  224   215   142 1
  225   216   142 1
  226   217   174 1
  227   218   173 1
  228   219   171 1
  229   220   170 1
  230   221   169 1
  231   222   140 1
  232   223   167 1
  233   224   166 1
  234   225   165 1
  235   226   163 1
  236   227   161 1
  237   228   139 1
  238   229   139 1
  239   230   153 1
  240   231   152 1
  241   232   150 1
  242   233   149 1
  243   234   148 1
  244   235   162 1
  245   65    153 1
  246   65    174 1
@<TRIPOS>SUBSTRUCTURE
      1 CLA               1 ****               0 ****  **** 
      2 LUT             138 ****               0 ****  **** 
