@<TRIPOS>MOLECULE
Cpptraj generated mol2 file.
  235   246     2     0     0
SMALL
USER_CHARGES


@<TRIPOS>ATOM
      1 CAA        78.2897   57.7356   34.8250 a2         1 CLA     -0.055900
      2 CAB        77.8350   61.6665   43.7646 c8         1 CLA     -0.148500
      3 CAC        71.5886   56.5990   43.5157 a2         1 CLA     -0.012600
      4 CAD        74.5022   54.8621   35.9297 ck         1 CLA      0.398800
      5 NA         77.3026   58.1452   38.2300 ns         1 CLA     -0.225500
      6 CBA        79.5256   57.7425   33.9735 a2         1 CLA     -0.135000
      7 CBB        78.9485   61.8077   44.5592 c0         1 CLA     -0.395200
      8 CBC        71.8946   55.1289   43.6176 a3         1 CLA     -0.037700
      9 CBD        75.9624   55.4799   35.7628 a1         1 CLA     -0.053900
     10 NB         76.9564   59.6099   40.7696 nm         1 CLA     -0.295700
     11 OBD        73.9513   54.1066   35.1065 o2         1 CLA     -0.494600
     12 CGA        80.3465   56.4607   33.8512 c4         1 CLA      0.827000
     13 CGD        77.0948   54.4747   35.6945 c4         1 CLA      0.655300
     14 ND         74.5812   56.8932   38.8501 nm         1 CLA     -0.291600
     15 CED        78.2489   52.8040   36.9317 a3         1 CLA      0.005400
     16 CHA        76.1008   56.5552   36.8726 cs         1 CLA     -0.123800
     17 CHB        78.8434   59.8055   39.2431 aa         1 CLA     -0.291900
     18 CHC        75.6307   59.7875   42.7827 aa         1 CLA     -0.090400
     19 CHD        72.7721   56.5279   40.4260 aa         1 CLA     -0.052000
     20 CMA        80.8986   58.3129   37.3131 a3         1 CLA     -0.230700
     21 CMB        80.1898   61.6124   41.4253 a3         1 CLA     -0.180800
     22 CMC        73.5574   58.9004   44.8638 a3         1 CLA     -0.134000
     23 CMD        71.7728   54.5165   38.2258 a3         1 CLA     -0.141100
     24 C1         81.5125   54.7383   35.0778 a2         1 CLA      0.023000
     25 C1A        77.2334   57.3588   37.1215 ac         1 CLA     -0.015100
     26 C1B        78.1552   60.1313   40.3857 cr         1 CLA      0.054700
     27 C1C        74.6189   58.8121   42.5605 cn         1 CLA     -0.005600
     28 C1D        73.3658   56.3444   39.1629 ap         1 CLA     -0.047300
     29 O1A        80.5042   55.7806   32.8070 o2         1 CLA     -0.610800
     30 O1D        77.9692   54.4387   34.8846 o2         1 CLA     -0.558200
     31 C2         81.9726   54.4702   36.4961 c8         1 CLA     -0.325100
     32 C2A        78.5642   57.4499   36.3207 a1         1 CLA      0.098600
     33 C2B        78.7641   60.9763   41.4840 cb         1 CLA      0.088500
     34 C2C        73.5699   58.4458   43.4311 cb         1 CLA      0.053700
     35 C2D        72.9068   55.4798   38.0643 cb         1 CLA      0.058900
     36 O2A        80.9000   56.1068   35.0571 o1         1 CLA     -0.437200
     37 O2D        77.0534   53.6523   36.7971 o1         1 CLA     -0.357600
     38 C3         83.0168   53.7073   36.8486 c5         1 CLA      0.031200
     39 C3A        79.3816   58.5246   37.0742 a1         1 CLA      0.166800
     40 C3B        77.8320   60.9875   42.4787 cb         1 CLA      0.035000
     41 C3C        72.7724   57.4669   42.8473 cb         1 CLA     -0.089900
     42 C3D        73.9971   55.4545   37.1268 cb         1 CLA     -0.035900
     43 C4         82.8485   52.1963   37.0821 a3         1 CLA     -0.053300
     44 C4A        78.4610   58.8356   38.2669 ac         1 CLA      0.001800
     45 C4B        76.7151   60.1342   42.0211 cn         1 CLA     -0.020900
     46 C4C        73.2704   57.3841   41.4640 cr         1 CLA     -0.044400
     47 C4D        74.9441   56.4127   37.6650 c6         1 CLA     -0.046000
     48 C5         84.4539   54.1543   36.8733 a2         1 CLA     -0.070400
     49 C6         84.6472   55.7173   36.9312 a2         1 CLA      0.043900
     50 C7         84.6863   56.1088   38.3654 a2         1 CLA     -0.150000
     51 C8         84.9127   57.5584   38.7909 a1         1 CLA      0.064200
     52 C9         86.3139   58.0468   38.2132 a3         1 CLA     -0.259300
     53 C10        84.9681   57.8600   40.3569 a2         1 CLA     -0.071900
     54 C11        83.6922   57.4318   41.0637 a2         1 CLA      0.014500
     55 C12        83.4694   58.2326   42.4325 a2         1 CLA     -0.112100
     56 C13        84.5903   58.3793   43.4415 a1         1 CLA      0.089200
     57 C14        85.1259   56.9974   44.0628 a3         1 CLA     -0.239100
     58 C15        84.1799   59.3825   44.6200 a2         1 CLA     -0.102200
     59 C16        82.9014   59.1286   45.4873 a2         1 CLA      0.023900
     60 C17        83.0195   59.6916   46.9134 a2         1 CLA     -0.105700
     61 C18        83.3053   61.2516   47.0039 a1         1 CLA      0.206800
     62 C19        81.9642   61.9498   46.7004 a3         1 CLA     -0.280100
     63 C20        83.7960   61.5910   48.4511 a3         1 CLA     -0.280100
     64 NC         74.4289   58.1915   41.4021 nx         1 CLA     -0.309200
     65 MG         75.7446   58.3118   39.7759 mg         1 CLA      0.895000
     66 HMD3       71.9263   53.5867   37.6451 dc         1 CLA      0.064300
     67 HMD2       71.5396   54.1671   39.2314 dc         1 CLA      0.064300
     68 HMD1       70.7525   54.9150   37.9291 dc         1 CLA      0.064300
     69 HMC3       73.1807   59.9276   44.9851 dc         1 CLA      0.052100
     70 HMC2       72.9235   58.2584   45.4566 dc         1 CLA      0.052100
     71 HMC1       74.5805   58.8866   45.2535 dc         1 CLA      0.052100
     72 HMB3       79.9571   62.7131   41.6319 dc         1 CLA      0.063600
     73 HMB2       80.8948   61.1130   42.0759 dc         1 CLA      0.063600
     74 HMB1       80.6017   61.6207   40.4273 dc         1 CLA      0.063600
     75 HMA3       81.3020   59.1883   37.7509 dc         1 CLA      0.058300
     76 HMA2       81.0737   57.5043   37.9982 dc         1 CLA      0.058300
     77 HMA1       81.3943   58.1171   36.4001 dc         1 CLA      0.058300
     78 HED3       78.3317   52.2501   35.9631 dc         1 CLA      0.079300
     79 HED2       79.1589   53.3250   37.2224 dc         1 CLA      0.079300
     80 HED1       78.0780   52.1633   37.7868 dc         1 CLA      0.079300
     81 HBC3       71.9056   54.7455   42.5612 dc         1 CLA      0.016300
     82 HBC2       72.8563   54.8161   44.0524 dc         1 CLA      0.016300
     83 HBC1       71.0043   54.7625   44.1379 dc         1 CLA      0.016300
     84 HBB2       78.7640   62.2680   45.5544 da         1 CLA      0.183000
     85 HBB1       79.9454   61.4547   44.3096 da         1 CLA      0.183000
     86 HBA2       79.3377   58.1406   32.9124 dc         1 CLA      0.029400
     87 HBA1       80.2610   58.4011   34.3718 dc         1 CLA      0.029400
     88 HAC2       71.4115   56.9569   44.5913 dc         1 CLA      0.029300
     89 HAC1       70.6539   56.7944   43.0683 dc         1 CLA      0.029300
     90 HAA2       77.8349   56.8918   34.3046 dc         1 CLA      0.028700
     91 HAA1       77.6638   58.6234   34.7332 dc         1 CLA      0.028700
     92 H203       83.7068   62.6500   48.5805 dc         1 CLA      0.065600
     93 H202       83.2500   61.0395   49.2798 dc         1 CLA      0.065600
     94 H201       84.8808   61.2786   48.5469 dc         1 CLA      0.065600
     95 H193       82.1020   63.0460   46.8439 dc         1 CLA      0.065600
     96 H192       81.9394   61.9135   45.5711 dc         1 CLA      0.065600
     97 H191       81.1211   61.5080   47.1936 dc         1 CLA      0.065600
     98 H172       82.0909   59.4648   47.4376 dc         1 CLA      0.027600
     99 H171       83.8192   59.1692   47.3931 dc         1 CLA      0.027600
    100 H162       81.9554   59.4587   44.9204 dc         1 CLA      0.002900
    101 H161       82.9348   58.0754   45.7325 dc         1 CLA      0.002900
    102 H152       85.0425   59.5212   45.2766 dc         1 CLA      0.029100
    103 H151       84.1597   60.2932   44.0728 dc         1 CLA      0.029100
    104 H143       84.4224   56.4384   44.6705 dc         1 CLA      0.063600
    105 H142       85.5407   56.2457   43.4066 dc         1 CLA      0.063600
    106 H141       85.7936   57.3512   44.7992 dc         1 CLA      0.063600
    107 H122       83.1464   59.1682   42.0615 dc         1 CLA      0.032500
    108 H121       82.5951   57.9163   42.8833 dc         1 CLA      0.032500
    109 H112       82.7982   57.4872   40.3921 dc         1 CLA      0.006600
    110 H111       83.8325   56.3472   41.2998 dc         1 CLA      0.006600
    111 H102       85.9120   57.5049   40.8594 dc         1 CLA      0.024100
    112 H101       84.9533   58.9252   40.4749 dc         1 CLA      0.024100
    113 HHD        71.8089   56.0542   40.7626 da         1 CLA      0.174300
    114 HHC        75.5816   60.2711   43.7409 da         1 CLA      0.136800
    115 HHB        79.7825   60.2148   38.9827 da         1 CLA      0.138300
    116 HBD        75.9136   55.8937   34.8660 dc         1 CLA      0.107700
    117 HAB        76.9319   61.9977   44.2628 da         1 CLA      0.155200
    118 H93        86.2520   58.1376   37.0739 dc         1 CLA      0.069500
    119 H92        86.6441   59.0575   38.6734 dc         1 CLA      0.069500
    120 H91        87.0826   57.2895   38.4686 dc         1 CLA      0.069500
    121 H8         84.0008   58.0977   38.4713 dc         1 CLA      0.029300
    122 H72        83.7463   55.7747   38.7135 dc         1 CLA      0.044400
    123 H71        85.6145   55.7046   38.8004 dc         1 CLA      0.044400
    124 H62        85.6395   55.8196   36.4308 dc         1 CLA      0.015600
    125 H61        84.0086   56.3879   36.3211 dc         1 CLA      0.015600
    126 H52        84.9964   53.6767   37.6431 dc         1 CLA      0.033200
    127 H51        84.8027   53.8856   35.9152 dc         1 CLA      0.033200
    128 H43        81.8645   51.9673   37.5476 dc         1 CLA      0.037000
    129 H42        83.0419   51.6646   36.1473 dc         1 CLA      0.037000
    130 H41        83.6335   51.8831   37.6685 dc         1 CLA      0.037000
    131 H3A        79.4014   59.4494   36.5843 dc         1 CLA      0.041100
    132 H2A        79.1194   56.5128   36.4456 dc         1 CLA      0.083100
    133 H2         81.5484   55.1980   37.2539 da         1 CLA      0.180900
    134 H18        84.1099   61.4865   46.2932 dc         1 CLA     -0.003900
    135 H13        85.5175   58.7161   42.9739 dc         1 CLA      0.019700
    136 H12        80.6690   54.1076   34.7674 dc         1 CLA      0.120400
    137 H11        82.3830   54.7582   34.4181 dc         1 CLA      0.120400
    138 C1         68.3166   60.7230   50.1762 Z1         2 LUT      0.509236
    139 C2         66.9146   60.4625   50.8578 Z2         2 LUT     -0.434695
    140 C3         66.0727   61.7262   51.1164 Z3         2 LUT      0.437453
    141 O3         66.4320   62.3994   52.3456 S1         2 LUT     -0.547129
    142 C4         66.2512   62.6983   49.9812 Z4         2 LUT     -0.468603
    143 C5         67.1184   62.4045   48.7697 Z5         2 LUT      0.279246
    144 C6         68.0619   61.4470   48.8808 Z6         2 LUT     -0.305473
    145 C7         68.6307   60.8291   47.6603 Z7         2 LUT      0.069402
    146 C8         69.4660   61.5619   46.8916 Z8         2 LUT     -0.191631
    147 C9         69.9905   61.3619   45.5565 Z9         2 LUT      0.196698
    148 C10        70.8887   62.3272   45.1515 Y1         2 LUT     -0.208611
    149 C11        71.6005   62.3991   43.8919 Y2         2 LUT      0.030784
    150 C12        72.7663   63.1259   43.5729 Y3         2 LUT     -0.220316
    151 C13        73.7264   62.9774   42.4625 Y4         2 LUT      0.215937
    152 C14        74.9610   63.5922   42.5296 Y5         2 LUT     -0.185793
    153 C15        76.0599   63.6511   41.6495 Y6         2 LUT     -0.057835
    154 C16        68.9233   59.3350   50.2071 Y7         2 LUT     -0.405615
    155 C17        69.0861   61.6170   51.1242 Y7         2 LUT     -0.405615
    156 C18        66.7515   63.1253   47.4871 Y9         2 LUT     -0.369639
    157 C19        69.4423   60.2017   44.6405 W1         2 LUT     -0.333362
    158 C20        73.3257   62.2877   41.1387 W2         2 LUT     -0.323439
    159 C21        87.2874   64.8994   35.3441 Z1         2 LUT      0.406104
    160 C22        88.0746   64.5121   34.0755 Z2         2 LUT     -0.404965
    161 C23        88.1587   65.5254   32.9832 Z3         2 LUT      0.391255
    162 O23        88.7143   64.7653   31.8846 S1         2 LUT     -0.528210
    163 C24        86.8270   66.1799   32.8231 W6         2 LUT     -0.258361
    164 C25        85.7898   66.2384   33.6632 Z5         2 LUT      0.133546
    165 C26        85.8244   65.4114   35.0194 W8         2 LUT     -0.147008
    166 C27        85.1572   66.0892   36.1770 Z7         2 LUT      0.023843
    167 C28        84.0244   65.7451   36.8465 Z8         2 LUT     -0.216987
    168 C29        83.2792   66.4967   37.8760 Z9         2 LUT      0.206524
    169 C30        82.3130   65.7840   38.4556 Y1         2 LUT     -0.215556
    170 C31        81.3763   66.0838   39.4543 Y2         2 LUT      0.025142
    171 C32        80.3549   65.2687   39.8059 Y3         2 LUT     -0.212209
    172 C33        79.3031   65.4765   40.8295 Y4         2 LUT      0.240937
    173 C34        78.1652   64.6480   40.7915 Y5         2 LUT     -0.218862
    174 C35        77.0510   64.5681   41.7181 Y6         2 LUT     -0.023547
    175 C36        88.1753   65.9957   36.1791 Y7         2 LUT     -0.393485
    176 C37        87.3822   63.6164   36.1238 Y7         2 LUT     -0.393485
    177 C38        84.4662   66.8576   33.2660 Y9         2 LUT     -0.387526
    178 C39        83.6271   67.9056   38.2631 W1         2 LUT     -0.322618
    179 C40        79.4940   66.5878   41.8411 W2         2 LUT     -0.358472
    180 H403       78.7365   66.6329   42.5928 R7         2 LUT      0.097720
    181 H402       80.4299   66.4655   42.4712 R7         2 LUT      0.097720
    182 H401       79.4781   67.5758   41.3277 R7         2 LUT      0.097720
    183 H393       84.3013   68.0317   39.1470 R4         2 LUT      0.082505
    184 H392       84.1134   68.3340   37.4420 R4         2 LUT      0.082505
    185 H391       82.7261   68.5396   38.4679 R4         2 LUT      0.082505
    186 H383       84.5658   67.5304   32.3493 R1         2 LUT      0.104030
    187 H382       83.7126   66.0586   33.0718 R1         2 LUT      0.104030
    188 H381       84.1221   67.5148   34.0248 R1         2 LUT      0.104030
    189 H373       86.8595   62.7142   35.6527 T4         2 LUT      0.089537
    190 H372       88.3651   63.3537   36.3426 T4         2 LUT      0.089537
    191 H371       87.1880   63.7720   37.1544 T4         2 LUT      0.089537
    192 H363       88.9993   65.5090   36.7186 T4         2 LUT      0.089537
    193 H362       88.6495   66.8063   35.4892 T4         2 LUT      0.089537
    194 H361       87.6423   66.4591   37.0243 T4         2 LUT      0.089537
    195 H222       89.0924   64.1340   34.3541 U2         2 LUT      0.127376
    196 H221       87.6461   63.5546   33.6414 U2         2 LUT      0.127376
    197 H203       73.8813   62.6401   40.2675 R7         2 LUT      0.087068
    198 H202       73.5196   61.1991   41.1911 R7         2 LUT      0.087068
    199 H201       72.3188   62.5085   40.8613 R7         2 LUT      0.087068
    200 H193       69.5900   60.5245   43.6039 R4         2 LUT      0.089716
    201 H192       70.0251   59.2420   44.6943 R4         2 LUT      0.089716
    202 H191       68.4184   59.9740   44.9217 R4         2 LUT      0.089716
    203 H183       65.6971   63.3749   47.3678 R1         2 LUT      0.094572
    204 H182       67.2608   64.1054   47.3702 R1         2 LUT      0.094572
    205 H181       67.0939   62.5323   46.6054 R1         2 LUT      0.094572
    206 H173       70.0808   61.7682   50.7605 T4         2 LUT      0.093752
    207 H172       68.7085   62.6339   51.2981 T4         2 LUT      0.093752
    208 H171       69.3446   61.2638   52.1214 T4         2 LUT      0.093752
    209 H163       68.3509   58.7194   49.5100 T4         2 LUT      0.093752
    210 H162       69.9322   59.3724   49.9491 T4         2 LUT      0.093752
    211 H161       68.9535   58.8296   51.1740 T4         2 LUT      0.093752
    212 HO3        66.2061   61.8729   53.1273 Q1         2 LUT      0.300121
    213 H8         69.7403   62.5843   47.2194 U7         2 LUT      0.080784
    214 H7         68.2144   59.8139   47.4638 U6         2 LUT      0.042190
    215 H42        65.2469   62.6271   49.4816 U5         2 LUT      0.145166
    216 H41        66.2061   63.6918   50.3772 U5         2 LUT      0.145166
    217 H35        76.9101   65.2775   42.5975 T3         2 LUT      0.077919
    218 H34        78.0085   63.9925   39.9232 T2         2 LUT      0.073626
    219 H32        80.1817   64.4044   39.1879 T1         2 LUT      0.092510
    220 H31        81.5155   67.0847   39.8993 U9         2 LUT      0.070048
    221 H30        82.1353   64.7545   38.1429 U8         2 LUT      0.085442
    222 H3         65.0291   61.5042   51.2452 U3         2 LUT     -0.031596
    223 H28        83.4568   64.8783   36.4720 U7         2 LUT      0.084728
    224 H27        85.5831   67.0189   36.5008 U6         2 LUT      0.087291
    225 H26        85.1022   64.6498   34.6814 Q6         2 LUT      0.075325
    226 H24        86.8420   66.8650   32.0002 Q5         2 LUT      0.094482
    227 H23        88.8320   66.3023   33.3514 U3         2 LUT     -0.024869
    228 H22        66.3229   59.9523   50.0470 U2         2 LUT      0.127376
    229 H21        66.9090   59.7542   51.6342 U2         2 LUT      0.127376
    230 H15        76.0717   62.9428   40.8090 T3         2 LUT      0.093200
    231 H14        75.1614   64.1735   43.5148 T2         2 LUT      0.068865
    232 H12        73.2126   63.7583   44.3199 T1         2 LUT      0.095507
    233 H11        71.4162   61.7079   43.0546 U9         2 LUT      0.068930
    234 H10        71.1009   63.0981   45.9735 U8         2 LUT      0.083911
    235 H1         88.6560   65.1940   31.0551 Q1         2 LUT      0.297311
@<TRIPOS>BOND
    1     6     1 1
    2     7     2 1
    3     8     3 1
    4     9     4 1
    5    11     4 1
    6    12     6 1
    7    13     9 1
    8    16     9 1
    9    25     5 1
   10    25    16 1
   11    26    10 1
   12    26    17 1
   13    27    18 1
   14    28    14 1
   15    28    19 1
   16    29    12 1
   17    30    13 1
   18    31    24 1
   19    32     1 1
   20    32    25 1
   21    33    21 1
   22    33    26 1
   23    34    22 1
   24    34    27 1
   25    35    23 1
   26    35    28 1
   27    36    12 1
   28    36    24 1
   29    37    13 1
   30    37    15 1
   31    38    31 1
   32    39    20 1
   33    39    32 1
   34    40     2 1
   35    40    33 1
   36    41     3 1
   37    41    34 1
   38    42     4 1
   39    42    35 1
   40    43    38 1
   41    44     5 1
   42    44    17 1
   43    44    39 1
   44    45    10 1
   45    45    18 1
   46    45    40 1
   47    46    19 1
   48    46    41 1
   49    47    14 1
   50    47    16 1
   51    47    42 1
   52    48    38 1
   53    49    48 1
   54    50    49 1
   55    51    50 1
   56    52    51 1
   57    53    51 1
   58    54    53 1
   59    55    54 1
   60    56    55 1
   61    57    56 1
   62    58    56 1
   63    59    58 1
   64    60    59 1
   65    61    60 1
   66    62    61 1
   67    63    61 1
   68    64    27 1
   69    64    46 1
   70    65     5 1
   71    65    10 1
   72    65    64 1
   73    65    14 1
   74    66    23 1
   75    67    23 1
   76    68    23 1
   77    69    22 1
   78    70    22 1
   79    71    22 1
   80    72    21 1
   81    73    21 1
   82    74    21 1
   83    75    20 1
   84    76    20 1
   85    77    20 1
   86    78    15 1
   87    79    15 1
   88    80    15 1
   89    81     8 1
   90    82     8 1
   91    83     8 1
   92    84     7 1
   93    85     7 1
   94    86     6 1
   95    87     6 1
   96    88     3 1
   97    89     3 1
   98    90     1 1
   99    91     1 1
  100    92    63 1
  101    93    63 1
  102    94    63 1
  103    95    62 1
  104    96    62 1
  105    97    62 1
  106    98    60 1
  107    99    60 1
  108   100    59 1
  109   101    59 1
  110   102    58 1
  111   103    58 1
  112   104    57 1
  113   105    57 1
  114   106    57 1
  115   107    55 1
  116   108    55 1
  117   109    54 1
  118   110    54 1
  119   111    53 1
  120   112    53 1
  121   113    19 1
  122   114    18 1
  123   115    17 1
  124   116     9 1
  125   117     2 1
  126   118    52 1
  127   119    52 1
  128   120    52 1
  129   121    51 1
  130   122    50 1
  131   123    50 1
  132   124    49 1
  133   125    49 1
  134   126    48 1
  135   127    48 1
  136   128    43 1
  137   129    43 1
  138   130    43 1
  139   131    39 1
  140   132    32 1
  141   133    31 1
  142   134    61 1
  143   135    56 1
  144   136    24 1
  145   137    24 1
  146   139   138 1
  147   140   139 1
  148   141   140 1
  149   142   140 1
  150   143   142 1
  151   144   138 1
  152   144   143 1
  153   145   144 1
  154   146   145 1
  155   147   146 1
  156   148   147 1
  157   149   148 1
  158   150   149 1
  159   151   150 1
  160   152   151 1
  161   153   152 1
  162   154   138 1
  163   155   138 1
  164   156   143 1
  165   157   147 1
  166   158   151 1
  167   160   159 1
  168   161   160 1
  169   162   161 1
  170   163   161 1
  171   164   163 1
  172   165   159 1
  173   165   164 1
  174   166   165 1
  175   167   166 1
  176   168   167 1
  177   169   168 1
  178   170   169 1
  179   171   170 1
  180   172   171 1
  181   173   172 1
  182   174   153 1
  183   174   173 1
  184   175   159 1
  185   176   159 1
  186   177   164 1
  187   178   168 1
  188   179   172 1
  189   180   179 1
  190   181   179 1
  191   182   179 1
  192   183   178 1
  193   184   178 1
  194   185   178 1
  195   186   177 1
  196   187   177 1
  197   188   177 1
  198   189   176 1
  199   190   176 1
  200   191   176 1
  201   192   175 1
  202   193   175 1
  203   194   175 1
  204   195   160 1
  205   196   160 1
  206   197   158 1
  207   198   158 1
  208   199   158 1
  209   200   157 1
  210   201   157 1
  211   202   157 1
  212   203   156 1
  213   204   156 1
  214   205   156 1
  215   206   155 1
  216   207   155 1
  217   208   155 1
  218   209   154 1
  219   210   154 1
  220   211   154 1
  221   212   141 1
  222   213   146 1
  223   214   145 1
  224   215   142 1
  225   216   142 1
  226   217   174 1
  227   218   173 1
  228   219   171 1
  229   220   170 1
  230   221   169 1
  231   222   140 1
  232   223   167 1
  233   224   166 1
  234   225   165 1
  235   226   163 1
  236   227   161 1
  237   228   139 1
  238   229   139 1
  239   230   153 1
  240   231   152 1
  241   232   150 1
  242   233   149 1
  243   234   148 1
  244   235   162 1
  245   65    153 1
  246   65    174 1
@<TRIPOS>SUBSTRUCTURE
      1 CLA               1 ****               0 ****  **** 
      2 LUT             138 ****               0 ****  **** 
