@<TRIPOS>MOLECULE
Cpptraj generated mol2 file.
  235   246     2     0     0
SMALL
USER_CHARGES


@<TRIPOS>ATOM
      1 CAA        79.9283   57.5162   34.7749 a2         1 CLA     -0.055900
      2 CAB        79.4141   61.9070   43.5546 c8         1 CLA     -0.148500
      3 CAC        72.8868   57.5778   43.3222 a2         1 CLA     -0.012600
      4 CAD        75.5255   55.2316   35.9382 ck         1 CLA      0.398800
      5 NA         78.6704   58.2451   38.1204 ns         1 CLA     -0.225500
      6 CBA        81.1522   57.2039   33.8681 a2         1 CLA     -0.135000
      7 CBB        80.4762   62.4179   44.2537 c0         1 CLA     -0.395200
      8 CBC        72.9474   56.0433   43.3220 a3         1 CLA     -0.037700
      9 CBD        77.0121   55.6570   35.7152 a1         1 CLA     -0.053900
     10 NB         78.5148   59.7569   40.6038 nm         1 CLA     -0.295700
     11 OBD        74.8852   54.4793   35.1715 o2         1 CLA     -0.494600
     12 CGA        81.3180   55.7105   33.5305 c4         1 CLA      0.827000
     13 CGD        77.7705   54.4228   35.4282 c4         1 CLA      0.655300
     14 ND         75.8765   57.2756   38.8418 nm         1 CLA     -0.291600
     15 CED        78.4902   52.1649   36.1534 a3         1 CLA      0.005400
     16 CHA        77.3721   56.6208   36.8981 cs         1 CLA     -0.123800
     17 CHB        80.3930   59.7524   39.0792 aa         1 CLA     -0.291900
     18 CHC        77.1880   60.0139   42.6434 aa         1 CLA     -0.090400
     19 CHD        73.9919   57.2382   40.3706 aa         1 CLA     -0.052000
     20 CMA        82.1940   57.6766   37.5792 a3         1 CLA     -0.230700
     21 CMB        81.6404   61.7674   40.9599 a3         1 CLA     -0.180800
     22 CMC        74.9706   59.7064   44.7829 a3         1 CLA     -0.134000
     23 CMD        72.7074   55.4785   38.0963 a3         1 CLA     -0.141100
     24 C1         82.2995   53.7300   34.1424 a2         1 CLA      0.023000
     25 C1A        78.5077   57.3845   37.0509 ac         1 CLA     -0.015100
     26 C1B        79.7587   60.2077   40.2267 cr         1 CLA      0.054700
     27 C1C        76.0318   59.2854   42.3630 cn         1 CLA     -0.005600
     28 C1D        74.5914   56.8585   39.1437 ap         1 CLA     -0.047300
     29 O1A        80.9775   55.1961   32.5241 o2         1 CLA     -0.610800
     30 O1D        78.4951   54.2616   34.4525 o2         1 CLA     -0.558200
     31 C2         83.2736   53.1244   35.1282 c8         1 CLA     -0.325100
     32 C2A        79.8973   57.2881   36.2797 a1         1 CLA      0.098600
     33 C2B        80.2626   61.1333   41.1349 cb         1 CLA      0.088500
     34 C2C        74.9465   59.0656   43.3691 cb         1 CLA      0.053700
     35 C2D        74.0305   56.1024   38.0513 cb         1 CLA      0.058900
     36 O2A        81.9808   55.0926   34.5687 o1         1 CLA     -0.437200
     37 O2D        77.6571   53.4597   36.3466 o1         1 CLA     -0.357600
     38 C3         84.5687   52.9051   34.9060 c5         1 CLA      0.031200
     39 C3A        80.8010   58.2668   37.0513 a1         1 CLA      0.166800
     40 C3B        79.3852   61.1655   42.2621 cb         1 CLA      0.035000
     41 C3C        74.1154   58.1645   42.6987 cb         1 CLA     -0.089900
     42 C3D        75.0917   55.9196   37.1625 cb         1 CLA     -0.035900
     43 C4         85.0009   51.7850   34.0244 a3         1 CLA     -0.053300
     44 C4A        79.9209   58.8632   38.0920 ac         1 CLA      0.001800
     45 C4B        78.2911   60.3511   41.8399 cn         1 CLA     -0.020900
     46 C4C        74.6136   58.0216   41.3611 cr         1 CLA     -0.044400
     47 C4D        76.2058   56.5714   37.7211 c6         1 CLA     -0.046000
     48 C5         85.7605   53.8341   35.4642 a2         1 CLA     -0.070400
     49 C6         85.6567   54.0336   36.9493 a2         1 CLA      0.043900
     50 C7         86.7758   55.0247   37.3076 a2         1 CLA     -0.150000
     51 C8         86.7606   55.5887   38.7455 a1         1 CLA      0.064200
     52 C9         85.6867   56.7251   38.9922 a3         1 CLA     -0.259300
     53 C10        88.1109   56.3085   39.1487 a2         1 CLA     -0.071900
     54 C11        88.2796   56.9372   40.5675 a2         1 CLA      0.014500
     55 C12        87.8451   56.0628   41.6601 a2         1 CLA     -0.112100
     56 C13        88.1555   56.5151   43.0962 a1         1 CLA      0.089200
     57 C14        87.7876   55.3476   44.0178 a3         1 CLA     -0.239100
     58 C15        87.5585   57.8433   43.5453 a2         1 CLA     -0.102200
     59 C16        85.9556   57.9874   43.6264 a2         1 CLA      0.023900
     60 C17        85.4634   59.1529   44.4640 a2         1 CLA     -0.105700
     61 C18        84.1088   58.9002   45.1661 a1         1 CLA      0.206800
     62 C19        84.1652   57.6564   46.0896 a3         1 CLA     -0.280100
     63 C20        83.7911   60.0883   45.9695 a3         1 CLA     -0.280100
     64 NC         75.8227   58.6175   41.2517 nx         1 CLA     -0.309200
     65 MG         77.1443   58.6304   39.5909 mg         1 CLA      0.895000
     66 HMD3       71.9111   56.2294   38.3123 dc         1 CLA      0.064300
     67 HMD2       72.5267   54.9092   37.1551 dc         1 CLA      0.064300
     68 HMD1       72.6838   54.7669   38.8610 dc         1 CLA      0.064300
     69 HMC3       75.6412   59.1194   45.4310 dc         1 CLA      0.052100
     70 HMC2       75.2951   60.7228   44.8772 dc         1 CLA      0.052100
     71 HMC1       74.0317   59.6098   45.3135 dc         1 CLA      0.052100
     72 HMB3       81.6524   62.1879   39.9046 dc         1 CLA      0.063600
     73 HMB2       81.8265   62.5785   41.6135 dc         1 CLA      0.063600
     74 HMB1       82.4448   61.0181   40.9444 dc         1 CLA      0.063600
     75 HMA3       82.8599   58.3887   38.1217 dc         1 CLA      0.058300
     76 HMA2       81.9203   56.8618   38.2173 dc         1 CLA      0.058300
     77 HMA1       82.9069   57.2781   36.8692 dc         1 CLA      0.058300
     78 HED3       78.3326   51.7428   35.1821 dc         1 CLA      0.079300
     79 HED2       79.5352   52.5235   36.0681 dc         1 CLA      0.079300
     80 HED1       78.3602   51.4135   36.8827 dc         1 CLA      0.079300
     81 HBC3       73.0576   55.4917   42.3654 dc         1 CLA      0.016300
     82 HBC2       73.6595   55.6717   44.1245 dc         1 CLA      0.016300
     83 HBC1       71.9283   55.7423   43.6047 dc         1 CLA      0.016300
     84 HBB2       80.4181   63.1375   45.0531 da         1 CLA      0.183000
     85 HBB1       81.5031   62.3174   43.8449 da         1 CLA      0.183000
     86 HBA2       80.9775   57.7622   32.9293 dc         1 CLA      0.029400
     87 HBA1       82.1065   57.6137   34.2636 dc         1 CLA      0.029400
     88 HAC2       72.7943   57.8440   44.3854 dc         1 CLA      0.029300
     89 HAC1       71.9669   57.9531   42.8647 dc         1 CLA      0.029300
     90 HAA2       79.1589   56.7653   34.4096 dc         1 CLA      0.028700
     91 HAA1       79.5208   58.5227   34.6614 dc         1 CLA      0.028700
     92 H203       84.6867   60.5119   46.4221 dc         1 CLA      0.065600
     93 H202       83.3274   60.9084   45.4557 dc         1 CLA      0.065600
     94 H201       83.0703   59.9884   46.7693 dc         1 CLA      0.065600
     95 H193       84.9805   57.7729   46.8020 dc         1 CLA      0.065600
     96 H192       83.1827   57.6730   46.6921 dc         1 CLA      0.065600
     97 H191       84.3868   56.6198   45.6743 dc         1 CLA      0.065600
     98 H172       86.2416   59.3694   45.1772 dc         1 CLA      0.027600
     99 H171       85.3835   60.0164   43.8377 dc         1 CLA      0.027600
    100 H162       85.7176   57.9762   42.5525 dc         1 CLA      0.002900
    101 H161       85.5768   57.0312   44.0323 dc         1 CLA      0.002900
    102 H152       87.8389   57.8953   44.5719 dc         1 CLA      0.029100
    103 H151       88.0630   58.7450   43.0741 dc         1 CLA      0.029100
    104 H143       86.8004   54.9049   43.8944 dc         1 CLA      0.063600
    105 H142       88.4856   54.5352   43.9134 dc         1 CLA      0.063600
    106 H141       87.7852   55.6674   45.0212 dc         1 CLA      0.063600
    107 H122       86.7415   55.9294   41.6240 dc         1 CLA      0.032500
    108 H121       88.2955   55.0561   41.4336 dc         1 CLA      0.032500
    109 H112       89.3379   57.1054   40.6800 dc         1 CLA      0.006600
    110 H111       87.8079   57.9301   40.6887 dc         1 CLA      0.006600
    111 H102       88.9747   55.7310   38.9765 dc         1 CLA      0.024100
    112 H101       88.1756   57.1348   38.4155 dc         1 CLA      0.024100
    113 HHD        73.0591   56.8624   40.7518 da         1 CLA      0.174300
    114 HHC        77.1114   60.2572   43.6865 da         1 CLA      0.136800
    115 HHB        81.4682   60.0312   38.9273 da         1 CLA      0.138300
    116 HBD        77.0405   56.1871   34.7500 dc         1 CLA      0.107700
    117 HAB        78.4688   62.2087   43.8516 da         1 CLA      0.155200
    118 H93        85.7567   57.5812   38.3037 dc         1 CLA      0.069500
    119 H92        84.7439   56.2831   38.7992 dc         1 CLA      0.069500
    120 H91        85.5500   57.1380   39.9459 dc         1 CLA      0.069500
    121 H8         86.6139   54.7318   39.4145 dc         1 CLA      0.029300
    122 H72        87.7044   54.4922   37.3464 dc         1 CLA      0.044400
    123 H71        86.8550   55.8789   36.5506 dc         1 CLA      0.044400
    124 H62        84.6564   54.4093   37.1415 dc         1 CLA      0.015600
    125 H61        85.8736   53.0788   37.4075 dc         1 CLA      0.015600
    126 H52        86.7469   53.5351   35.1510 dc         1 CLA      0.033200
    127 H51        85.6010   54.7111   34.8770 dc         1 CLA      0.033200
    128 H43        85.8217   52.0265   33.3433 dc         1 CLA      0.037000
    129 H42        85.3295   50.9232   34.6065 dc         1 CLA      0.037000
    130 H41        84.1626   51.3561   33.3632 dc         1 CLA      0.037000
    131 H3A        80.9601   59.1208   36.3025 dc         1 CLA      0.041100
    132 H2A        80.3263   56.3543   36.4731 dc         1 CLA      0.083100
    133 H2         82.7361   52.6554   35.9548 da         1 CLA      0.180900
    134 H18        83.3191   58.7636   44.4546 dc         1 CLA     -0.003900
    135 H13        89.2780   56.6807   43.2054 dc         1 CLA      0.019700
    136 H12        81.4080   53.1855   33.9501 dc         1 CLA      0.120400
    137 H11        82.8378   53.7697   33.1887 dc         1 CLA      0.120400
    138 C1         70.3000   61.9790   49.5375 Z1         2 LUT      0.509236
    139 C2         69.2249   61.5701   50.5882 Z2         2 LUT     -0.434695
    140 C3         68.2141   62.6681   50.9409 Z3         2 LUT      0.437453
    141 O3         68.3472   62.9400   52.3669 S1         2 LUT     -0.547129
    142 C4         68.2037   63.8922   50.1258 Z4         2 LUT     -0.468603
    143 C5         68.6399   63.7015   48.7694 Z5         2 LUT      0.279246
    144 C6         69.5849   62.7742   48.5008 Z6         2 LUT     -0.305473
    145 C7         69.9558   62.2819   47.1088 Z7         2 LUT      0.069402
    146 C8         71.1806   62.2765   46.5438 Z8         2 LUT     -0.191631
    147 C9         71.6236   61.8662   45.1344 Z9         2 LUT      0.196698
    148 C10        72.7453   62.3828   44.6657 Y1         2 LUT     -0.208611
    149 C11        73.3201   62.3370   43.3594 Y2         2 LUT      0.030784
    150 C12        74.4767   62.9528   43.1306 Y3         2 LUT     -0.220316
    151 C13        75.2508   62.9130   41.8434 Y4         2 LUT      0.215937
    152 C14        76.4841   63.5519   41.9866 Y5         2 LUT     -0.185793
    153 C15        77.5735   63.6235   41.0331 Y6         2 LUT     -0.057835
    154 C16        71.0205   60.5752   49.2570 Y7         2 LUT     -0.405615
    155 C17        71.3833   62.7832   50.4157 Y7         2 LUT     -0.405615
    156 C18        68.0143   64.6940   47.7784 Y9         2 LUT     -0.369639
    157 C19        70.6873   61.0294   44.3132 W1         2 LUT     -0.333362
    158 C20        74.8793   62.1698   40.5574 W2         2 LUT     -0.323439
    159 C21        88.7534   64.4383   35.0819 Z1         2 LUT      0.406104
    160 C22        89.3965   63.7164   33.9036 Z2         2 LUT     -0.404965
    161 C23        89.4980   64.5944   32.6598 Z3         2 LUT      0.391255
    162 O23        90.2060   63.7869   31.7055 S1         2 LUT     -0.528210
    163 C24        88.1775   65.1765   32.3236 W6         2 LUT     -0.258361
    164 C25        87.2272   65.4291   33.2151 Z5         2 LUT      0.133546
    165 C26        87.3708   65.0537   34.6698 W8         2 LUT     -0.147008
    166 C27        86.7157   66.0198   35.6194 Z7         2 LUT      0.023843
    167 C28        85.5985   65.6018   36.3260 Z8         2 LUT     -0.216987
    168 C29        85.0466   66.0619   37.5718 Z9         2 LUT      0.206524
    169 C30        83.7151   65.7603   37.9167 Y1         2 LUT     -0.215556
    170 C31        83.1220   65.8187   39.2281 Y2         2 LUT      0.025142
    171 C32        81.8704   65.2559   39.3488 Y3         2 LUT     -0.212209
    172 C33        81.0201   65.0871   40.5019 Y4         2 LUT      0.240937
    173 C34        79.7990   64.4277   40.4136 Y5         2 LUT     -0.218862
    174 C35        78.7274   64.2985   41.3167 Y6         2 LUT     -0.023547
    175 C36        89.6744   65.5471   35.4994 Y7         2 LUT     -0.393485
    176 C37        88.7692   63.3972   36.2243 Y7         2 LUT     -0.393485
    177 C38        85.9237   65.9935   32.7431 Y9         2 LUT     -0.387526
    178 C39        85.9999   66.7630   38.5095 W1         2 LUT     -0.322618
    179 C40        81.5545   65.5937   41.7929 W2         2 LUT     -0.358472
    180 H403       82.6161   65.3844   42.0199 R7         2 LUT      0.097720
    181 H402       81.4890   66.6605   41.7866 R7         2 LUT      0.097720
    182 H401       80.9422   65.1990   42.5782 R7         2 LUT      0.097720
    183 H393       86.6632   67.5837   38.1411 R4         2 LUT      0.082505
    184 H392       85.5234   67.2106   39.4253 R4         2 LUT      0.082505
    185 H391       86.7263   66.1052   38.9251 R4         2 LUT      0.082505
    186 H383       85.4668   66.7044   33.4536 R1         2 LUT      0.104030
    187 H382       85.9881   66.7001   31.8482 R1         2 LUT      0.104030
    188 H381       85.1309   65.2568   32.5717 R1         2 LUT      0.104030
    189 H373       89.7946   63.0113   36.5122 T4         2 LUT      0.089537
    190 H372       88.1843   63.7543   37.1003 T4         2 LUT      0.089537
    191 H371       88.0116   62.6515   35.9800 T4         2 LUT      0.089537
    192 H363       89.6143   66.3134   34.6848 T4         2 LUT      0.089537
    193 H362       89.2673   66.0483   36.3106 T4         2 LUT      0.089537
    194 H361       90.8074   65.3838   35.7224 T4         2 LUT      0.089537
    195 H222       90.4188   63.4000   34.1451 U2         2 LUT      0.127376
    196 H221       88.7895   62.8498   33.6138 U2         2 LUT      0.127376
    197 H203       74.9293   61.1264   40.7505 R7         2 LUT      0.087068
    198 H202       73.9241   62.6289   40.3248 R7         2 LUT      0.087068
    199 H201       75.4559   62.3727   39.6744 R7         2 LUT      0.087068
    200 H193       71.1009   60.1498   43.8456 R4         2 LUT      0.089716
    201 H192       69.7559   60.7200   44.7383 R4         2 LUT      0.089716
    202 H191       70.3603   61.6627   43.5116 R4         2 LUT      0.089716
    203 H183       68.1661   64.3387   46.7507 R1         2 LUT      0.094572
    204 H182       66.9351   64.8704   47.8460 R1         2 LUT      0.094572
    205 H181       68.5362   65.6405   47.7582 R1         2 LUT      0.094572
    206 H173       71.6349   62.2707   51.3483 T4         2 LUT      0.093752
    207 H172       72.3123   62.8412   49.8963 T4         2 LUT      0.093752
    208 H171       71.0307   63.7906   50.6692 T4         2 LUT      0.093752
    209 H163       71.7881   60.5982   48.6026 T4         2 LUT      0.093752
    210 H162       71.3681   60.0562   50.1240 T4         2 LUT      0.093752
    211 H161       70.2873   59.9475   48.8027 T4         2 LUT      0.093752
    212 HO3        67.9734   62.2949   52.9774 Q1         2 LUT      0.300121
    213 H8         71.9780   62.7242   47.0971 U7         2 LUT      0.080784
    214 H7         69.1412   61.9720   46.4262 U6         2 LUT      0.042190
    215 H42        67.2017   64.2813   50.1628 U5         2 LUT      0.145166
    216 H41        68.7716   64.6892   50.6175 U5         2 LUT      0.145166
    217 H35        78.6671   64.8445   42.2611 T3         2 LUT      0.077919
    218 H34        79.6597   64.0114   39.4425 T2         2 LUT      0.073626
    219 H32        81.4060   64.8661   38.4054 T1         2 LUT      0.092510
    220 H31        83.6347   66.2574   40.0600 U9         2 LUT      0.070048
    221 H30        83.2727   65.1460   37.1344 U8         2 LUT      0.085442
    222 H3         67.2858   62.1728   50.7783 U3         2 LUT     -0.031596
    223 H28        85.0502   64.8347   35.8585 U7         2 LUT      0.084728
    224 H27        87.2933   66.8909   35.9633 U6         2 LUT      0.087291
    225 H26        86.9266   64.0737   34.6179 Q6         2 LUT      0.075325
    226 H24        88.0182   65.5466   31.3180 Q5         2 LUT      0.094482
    227 H23        90.2085   65.5315   32.7378 U3         2 LUT     -0.024869
    228 H22        68.6390   60.7129   50.2819 U2         2 LUT      0.127376
    229 H21        69.6672   61.2273   51.5388 U2         2 LUT      0.127376
    230 H15        77.5514   63.0706   40.0932 T3         2 LUT      0.093200
    231 H14        76.5906   64.0049   42.9739 T2         2 LUT      0.068865
    232 H12        74.9202   63.5006   43.9179 T1         2 LUT      0.095507
    233 H11        72.7389   61.9063   42.5510 U9         2 LUT      0.068930
    234 H10        73.2766   63.0912   45.3186 U8         2 LUT      0.083911
    235 H1         90.3072   64.2656   30.8143 Q1         2 LUT      0.297311
@<TRIPOS>BOND
    1     6     1 1
    2     7     2 1
    3     8     3 1
    4     9     4 1
    5    11     4 1
    6    12     6 1
    7    13     9 1
    8    16     9 1
    9    25     5 1
   10    25    16 1
   11    26    10 1
   12    26    17 1
   13    27    18 1
   14    28    14 1
   15    28    19 1
   16    29    12 1
   17    30    13 1
   18    31    24 1
   19    32     1 1
   20    32    25 1
   21    33    21 1
   22    33    26 1
   23    34    22 1
   24    34    27 1
   25    35    23 1
   26    35    28 1
   27    36    12 1
   28    36    24 1
   29    37    13 1
   30    37    15 1
   31    38    31 1
   32    39    20 1
   33    39    32 1
   34    40     2 1
   35    40    33 1
   36    41     3 1
   37    41    34 1
   38    42     4 1
   39    42    35 1
   40    43    38 1
   41    44     5 1
   42    44    17 1
   43    44    39 1
   44    45    10 1
   45    45    18 1
   46    45    40 1
   47    46    19 1
   48    46    41 1
   49    47    14 1
   50    47    16 1
   51    47    42 1
   52    48    38 1
   53    49    48 1
   54    50    49 1
   55    51    50 1
   56    52    51 1
   57    53    51 1
   58    54    53 1
   59    55    54 1
   60    56    55 1
   61    57    56 1
   62    58    56 1
   63    59    58 1
   64    60    59 1
   65    61    60 1
   66    62    61 1
   67    63    61 1
   68    64    27 1
   69    64    46 1
   70    65     5 1
   71    65    10 1
   72    65    64 1
   73    65    14 1
   74    66    23 1
   75    67    23 1
   76    68    23 1
   77    69    22 1
   78    70    22 1
   79    71    22 1
   80    72    21 1
   81    73    21 1
   82    74    21 1
   83    75    20 1
   84    76    20 1
   85    77    20 1
   86    78    15 1
   87    79    15 1
   88    80    15 1
   89    81     8 1
   90    82     8 1
   91    83     8 1
   92    84     7 1
   93    85     7 1
   94    86     6 1
   95    87     6 1
   96    88     3 1
   97    89     3 1
   98    90     1 1
   99    91     1 1
  100    92    63 1
  101    93    63 1
  102    94    63 1
  103    95    62 1
  104    96    62 1
  105    97    62 1
  106    98    60 1
  107    99    60 1
  108   100    59 1
  109   101    59 1
  110   102    58 1
  111   103    58 1
  112   104    57 1
  113   105    57 1
  114   106    57 1
  115   107    55 1
  116   108    55 1
  117   109    54 1
  118   110    54 1
  119   111    53 1
  120   112    53 1
  121   113    19 1
  122   114    18 1
  123   115    17 1
  124   116     9 1
  125   117     2 1
  126   118    52 1
  127   119    52 1
  128   120    52 1
  129   121    51 1
  130   122    50 1
  131   123    50 1
  132   124    49 1
  133   125    49 1
  134   126    48 1
  135   127    48 1
  136   128    43 1
  137   129    43 1
  138   130    43 1
  139   131    39 1
  140   132    32 1
  141   133    31 1
  142   134    61 1
  143   135    56 1
  144   136    24 1
  145   137    24 1
  146   139   138 1
  147   140   139 1
  148   141   140 1
  149   142   140 1
  150   143   142 1
  151   144   138 1
  152   144   143 1
  153   145   144 1
  154   146   145 1
  155   147   146 1
  156   148   147 1
  157   149   148 1
  158   150   149 1
  159   151   150 1
  160   152   151 1
  161   153   152 1
  162   154   138 1
  163   155   138 1
  164   156   143 1
  165   157   147 1
  166   158   151 1
  167   160   159 1
  168   161   160 1
  169   162   161 1
  170   163   161 1
  171   164   163 1
  172   165   159 1
  173   165   164 1
  174   166   165 1
  175   167   166 1
  176   168   167 1
  177   169   168 1
  178   170   169 1
  179   171   170 1
  180   172   171 1
  181   173   172 1
  182   174   153 1
  183   174   173 1
  184   175   159 1
  185   176   159 1
  186   177   164 1
  187   178   168 1
  188   179   172 1
  189   180   179 1
  190   181   179 1
  191   182   179 1
  192   183   178 1
  193   184   178 1
  194   185   178 1
  195   186   177 1
  196   187   177 1
  197   188   177 1
  198   189   176 1
  199   190   176 1
  200   191   176 1
  201   192   175 1
  202   193   175 1
  203   194   175 1
  204   195   160 1
  205   196   160 1
  206   197   158 1
  207   198   158 1
  208   199   158 1
  209   200   157 1
  210   201   157 1
  211   202   157 1
  212   203   156 1
  213   204   156 1
  214   205   156 1
  215   206   155 1
  216   207   155 1
  217   208   155 1
  218   209   154 1
  219   210   154 1
  220   211   154 1
  221   212   141 1
  222   213   146 1
  223   214   145 1
  224   215   142 1
  225   216   142 1
  226   217   174 1
  227   218   173 1
  228   219   171 1
  229   220   170 1
  230   221   169 1
  231   222   140 1
  232   223   167 1
  233   224   166 1
  234   225   165 1
  235   226   163 1
  236   227   161 1
  237   228   139 1
  238   229   139 1
  239   230   153 1
  240   231   152 1
  241   232   150 1
  242   233   149 1
  243   234   148 1
  244   235   162 1
  245   65    153 1
  246   65    174 1
@<TRIPOS>SUBSTRUCTURE
      1 CLA               1 ****               0 ****  **** 
      2 LUT             138 ****               0 ****  **** 
