@<TRIPOS>MOLECULE
Cpptraj generated mol2 file.
  235   246     2     0     0
SMALL
USER_CHARGES


@<TRIPOS>ATOM
      1 CAA        79.7822   58.0737   34.6975 a2         1 CLA     -0.055900
      2 CAB        79.7989   62.1129   43.6819 c8         1 CLA     -0.148500
      3 CAC        73.0612   57.8902   43.2106 a2         1 CLA     -0.012600
      4 CAD        75.4433   55.8103   35.8675 ck         1 CLA      0.398800
      5 NA         78.7376   58.7322   37.9560 ns         1 CLA     -0.225500
      6 CBA        81.0596   57.8056   33.8986 a2         1 CLA     -0.135000
      7 CBB        80.9189   62.0009   44.4387 c0         1 CLA     -0.395200
      8 CBC        73.1495   56.3935   43.1373 a3         1 CLA     -0.037700
      9 CBD        76.9536   56.2589   35.4741 a1         1 CLA     -0.053900
     10 NB         78.7241   60.2557   40.5741 nm         1 CLA     -0.295700
     11 OBD        74.7871   54.9603   35.2639 o2         1 CLA     -0.494600
     12 CGA        81.3760   56.3246   33.5583 c4         1 CLA      0.827000
     13 CGD        77.8450   55.0424   35.2937 c4         1 CLA      0.655300
     14 ND         75.8560   57.9917   38.5597 nm         1 CLA     -0.291600
     15 CED        78.8499   53.3129   36.5969 a3         1 CLA      0.005400
     16 CHA        77.3535   57.1948   36.6351 cs         1 CLA     -0.123800
     17 CHB        80.5959   59.9665   39.0884 aa         1 CLA     -0.291900
     18 CHC        77.4148   60.5689   42.5916 aa         1 CLA     -0.090400
     19 CHD        73.9480   58.0621   40.1011 aa         1 CLA     -0.052000
     20 CMA        82.1029   57.8653   37.5904 a3         1 CLA     -0.230700
     21 CMB        82.1299   61.7767   41.2327 a3         1 CLA     -0.180800
     22 CMC        75.2538   59.7478   44.8386 a3         1 CLA     -0.134000
     23 CMD        72.6710   55.8935   38.0060 a3         1 CLA     -0.141100
     24 C1         82.0582   54.2143   34.4740 a2         1 CLA      0.023000
     25 C1A        78.5560   57.8499   36.9043 ac         1 CLA     -0.015100
     26 C1B        80.0195   60.5210   40.2073 cr         1 CLA      0.054700
     27 C1C        76.2621   59.8150   42.3552 cn         1 CLA     -0.005600
     28 C1D        74.5203   57.6735   38.8934 ap         1 CLA     -0.047300
     29 O1A        81.1282   55.8003   32.4732 o2         1 CLA     -0.610800
     30 O1D        78.4093   54.6621   34.2737 o2         1 CLA     -0.558200
     31 C2         82.4074   53.5640   35.8338 c8         1 CLA     -0.325100
     32 C2A        79.9143   57.7585   36.2153 a1         1 CLA      0.098600
     33 C2B        80.6645   61.2977   41.2546 cb         1 CLA      0.088500
     34 C2C        75.1807   59.4097   43.2931 cb         1 CLA      0.053700
     35 C2D        74.0311   56.6628   37.9351 cb         1 CLA      0.058900
     36 O2A        81.9659   55.6363   34.6714 o1         1 CLA     -0.437200
     37 O2D        78.0717   54.5220   36.5675 o1         1 CLA     -0.357600
     38 C3         83.4348   52.7299   36.1362 c5         1 CLA      0.031200
     39 C3A        80.8695   58.6272   37.0477 a1         1 CLA      0.166800
     40 C3B        79.7089   61.4295   42.3164 cb         1 CLA      0.035000
     41 C3C        74.2275   58.6644   42.5538 cb         1 CLA     -0.089900
     42 C3D        75.0758   56.4920   37.0521 cb         1 CLA     -0.035900
     43 C4         83.2944   51.2616   36.0604 a3         1 CLA     -0.053300
     44 C4A        80.0046   59.0917   38.1168 ac         1 CLA      0.001800
     45 C4B        78.5374   60.7774   41.7998 cn         1 CLA     -0.020900
     46 C4C        74.6237   58.6438   41.1657 cr         1 CLA     -0.044400
     47 C4D        76.1651   57.2561   37.4210 c6         1 CLA     -0.046000
     48 C5         84.8644   53.2339   36.4082 a2         1 CLA     -0.070400
     49 C6         84.8806   54.5839   37.2400 a2         1 CLA      0.043900
     50 C7         86.2939   54.9150   37.8081 a2         1 CLA     -0.150000
     51 C8         86.2654   55.9458   38.9956 a1         1 CLA      0.064200
     52 C9         85.9097   57.3981   38.4775 a3         1 CLA     -0.259300
     53 C10        87.5750   56.0313   39.8969 a2         1 CLA     -0.071900
     54 C11        87.3671   56.7691   41.1776 a2         1 CLA      0.014500
     55 C12        88.6197   57.1391   41.9208 a2         1 CLA     -0.112100
     56 C13        88.4477   57.6269   43.4084 a1         1 CLA      0.089200
     57 C14        89.6958   58.4280   43.7929 a3         1 CLA     -0.239100
     58 C15        88.2037   56.4604   44.4240 a2         1 CLA     -0.102200
     59 C16        87.9421   56.8802   45.8646 a2         1 CLA      0.023900
     60 C17        86.7680   57.8304   45.9061 a2         1 CLA     -0.105700
     61 C18        86.3357   58.3081   47.3327 a1         1 CLA      0.206800
     62 C19        84.8761   58.8201   47.2478 a3         1 CLA     -0.280100
     63 C20        86.2442   57.1894   48.4096 a3         1 CLA     -0.280100
     64 NC         75.8953   59.2229   41.1211 nx         1 CLA     -0.309200
     65 MG         77.2320   59.2195   39.4020 mg         1 CLA      0.895000
     66 HMD3       72.3682   55.7285   39.0589 dc         1 CLA      0.064300
     67 HMD2       71.7730   56.4552   37.6576 dc         1 CLA      0.064300
     68 HMD1       72.7578   54.8736   37.5998 dc         1 CLA      0.064300
     69 HMC3       75.0059   60.8402   45.0577 dc         1 CLA      0.052100
     70 HMC2       74.5441   59.2337   45.4742 dc         1 CLA      0.052100
     71 HMC1       76.2113   59.5254   45.1490 dc         1 CLA      0.052100
     72 HMB3       82.6032   62.0116   42.2086 dc         1 CLA      0.063600
     73 HMB2       82.6588   60.9425   40.7871 dc         1 CLA      0.063600
     74 HMB1       82.1700   62.6348   40.5275 dc         1 CLA      0.063600
     75 HMA3       82.8050   57.8076   36.7700 dc         1 CLA      0.058300
     76 HMA2       82.5630   58.3922   38.3448 dc         1 CLA      0.058300
     77 HMA1       81.8357   56.7907   37.8399 dc         1 CLA      0.058300
     78 HED3       78.8313   52.8568   37.6073 dc         1 CLA      0.079300
     79 HED2       78.4632   52.5468   35.9507 dc         1 CLA      0.079300
     80 HED1       79.9003   53.4388   36.4114 dc         1 CLA      0.079300
     81 HBC3       73.7046   56.1253   42.2286 dc         1 CLA      0.016300
     82 HBC2       73.8456   56.1617   43.9254 dc         1 CLA      0.016300
     83 HBC1       72.2056   55.7805   43.2053 dc         1 CLA      0.016300
     84 HBB2       80.9959   62.3008   45.4452 da         1 CLA      0.183000
     85 HBB1       81.7240   61.3274   44.0968 da         1 CLA      0.183000
     86 HBA2       80.9115   58.3001   32.9281 dc         1 CLA      0.029400
     87 HBA1       81.7957   58.3897   34.4858 dc         1 CLA      0.029400
     88 HAC2       72.8560   58.1879   44.2286 dc         1 CLA      0.029300
     89 HAC1       72.1986   58.2148   42.6260 dc         1 CLA      0.029300
     90 HAA2       78.9359   57.6215   34.2980 dc         1 CLA      0.028700
     91 HAA1       79.6216   59.1794   34.7000 dc         1 CLA      0.028700
     92 H203       85.6458   57.4771   49.3025 dc         1 CLA      0.065600
     93 H202       85.7650   56.3325   47.9579 dc         1 CLA      0.065600
     94 H201       87.2327   56.8038   48.7064 dc         1 CLA      0.065600
     95 H193       84.6352   59.1742   48.2461 dc         1 CLA      0.065600
     96 H192       84.7802   59.5777   46.5635 dc         1 CLA      0.065600
     97 H191       84.1705   58.0248   47.0339 dc         1 CLA      0.065600
     98 H172       86.9601   58.7490   45.3288 dc         1 CLA      0.027600
     99 H171       85.9178   57.2895   45.6451 dc         1 CLA      0.027600
    100 H162       87.5986   55.9812   46.3993 dc         1 CLA      0.002900
    101 H161       88.7895   57.3676   46.4142 dc         1 CLA      0.002900
    102 H152       87.3971   55.8095   44.0490 dc         1 CLA      0.029100
    103 H151       89.1119   55.8434   44.4841 dc         1 CLA      0.029100
    104 H143       89.3972   59.2050   44.4608 dc         1 CLA      0.063600
    105 H142       90.5246   57.8450   44.2053 dc         1 CLA      0.063600
    106 H141       90.1066   59.0137   42.9743 dc         1 CLA      0.063600
    107 H122       89.3606   56.3450   41.7706 dc         1 CLA      0.032500
    108 H121       89.0000   57.9671   41.3192 dc         1 CLA      0.032500
    109 H112       86.7584   57.6293   40.9667 dc         1 CLA      0.006600
    110 H111       86.8803   56.0341   41.8454 dc         1 CLA      0.006600
    111 H102       87.9957   55.0148   40.0285 dc         1 CLA      0.024100
    112 H101       88.3765   56.4721   39.2703 dc         1 CLA      0.024100
    113 HHD        72.9600   57.6369   40.2721 da         1 CLA      0.174300
    114 HHC        77.5100   60.9520   43.5611 da         1 CLA      0.136800
    115 HHB        81.6486   60.2183   38.9762 da         1 CLA      0.138300
    116 HBD        76.8869   56.7959   34.5741 dc         1 CLA      0.107700
    117 HAB        78.8834   62.6128   44.0036 da         1 CLA      0.155200
    118 H93        85.3787   57.9344   39.2526 dc         1 CLA      0.069500
    119 H92        86.8781   57.9588   38.2043 dc         1 CLA      0.069500
    120 H91        85.3326   57.3111   37.5478 dc         1 CLA      0.069500
    121 H8         85.4629   55.6555   39.5955 dc         1 CLA      0.029300
    122 H72        86.6303   54.0396   38.2995 dc         1 CLA      0.044400
    123 H71        86.9251   55.3658   37.0719 dc         1 CLA      0.044400
    124 H62        84.3501   55.3874   36.7895 dc         1 CLA      0.015600
    125 H61        84.3133   54.2363   38.1218 dc         1 CLA      0.015600
    126 H52        85.3987   52.4545   36.9749 dc         1 CLA      0.033200
    127 H51        85.3920   53.3944   35.4507 dc         1 CLA      0.033200
    128 H43        82.2435   51.0869   36.2350 dc         1 CLA      0.037000
    129 H42        83.6497   51.0100   35.0651 dc         1 CLA      0.037000
    130 H41        84.0024   50.9180   36.8647 dc         1 CLA      0.037000
    131 H3A        81.1027   59.4836   36.4763 dc         1 CLA      0.041100
    132 H2A        80.2584   56.7694   36.3137 dc         1 CLA      0.083100
    133 H2         82.0694   53.9398   36.7880 da         1 CLA      0.180900
    134 H18        86.9296   59.2153   47.5667 dc         1 CLA     -0.003900
    135 H13        87.5215   58.2183   43.3065 dc         1 CLA      0.019700
    136 H12        81.0891   53.7681   34.1820 dc         1 CLA      0.120400
    137 H11        82.7643   53.9238   33.6494 dc         1 CLA      0.120400
    138 C1         69.1989   61.3551   50.6972 Z1         2 LUT      0.509236
    139 C2         69.1490   62.7101   51.5971 Z2         2 LUT     -0.434695
    140 C3         67.9537   63.5360   51.4773 Z3         2 LUT      0.437453
    141 O3         68.2556   64.8430   51.7854 S1         2 LUT     -0.547129
    142 C4         67.3934   63.4561   50.0742 Z4         2 LUT     -0.468603
    143 C5         68.2652   62.8813   49.0205 Z5         2 LUT      0.279246
    144 C6         69.0145   61.7674   49.1973 Z6         2 LUT     -0.305473
    145 C7         69.9629   61.1903   48.2089 Z7         2 LUT      0.069402
    146 C8         70.8290   61.9043   47.4335 Z8         2 LUT     -0.191631
    147 C9         71.2841   61.6296   46.0656 Z9         2 LUT      0.196698
    148 C10        72.3030   62.4495   45.7254 Y1         2 LUT     -0.208611
    149 C11        72.8359   62.5835   44.3984 Y2         2 LUT      0.030784
    150 C12        74.0393   63.2504   44.1218 Y3         2 LUT     -0.220316
    151 C13        74.7149   63.4046   42.8860 Y4         2 LUT      0.215937
    152 C14        75.9494   63.9411   42.9236 Y5         2 LUT     -0.185793
    153 C15        76.9625   64.0435   41.8824 Y6         2 LUT     -0.057835
    154 C16        68.1064   60.4396   51.2052 Y7         2 LUT     -0.405615
    155 C17        70.5934   60.6994   50.9589 Y7         2 LUT     -0.405615
    156 C18        68.2160   63.5871   47.7211 Y9         2 LUT     -0.369639
    157 C19        70.7115   60.4400   45.2676 W1         2 LUT     -0.333362
    158 C20        73.9463   63.0060   41.6602 W2         2 LUT     -0.323439
    159 C21        88.9048   65.4054   35.9740 Z1         2 LUT      0.406104
    160 C22        89.6688   64.6932   34.7244 Z2         2 LUT     -0.404965
    161 C23        89.5951   65.4815   33.4582 Z3         2 LUT      0.391255
    162 O23        90.0344   64.4953   32.4866 S1         2 LUT     -0.528210
    163 C24        88.2875   66.3357   33.2461 W6         2 LUT     -0.258361
    164 C25        87.3284   66.4284   34.1556 Z5         2 LUT      0.133546
    165 C26        87.4054   65.7038   35.4897 W8         2 LUT     -0.147008
    166 C27        86.6294   66.3136   36.6594 Z7         2 LUT      0.023843
    167 C28        85.3313   66.0786   36.9682 Z8         2 LUT     -0.216987
    168 C29        84.5758   66.2612   38.2616 Z9         2 LUT      0.206524
    169 C30        83.2641   65.8476   38.3741 Y1         2 LUT     -0.215556
    170 C31        82.4768   65.8634   39.5412 Y2         2 LUT      0.025142
    171 C32        81.2972   65.2457   39.7554 Y3         2 LUT     -0.212209
    172 C33        80.4508   65.1651   40.9582 Y4         2 LUT      0.240937
    173 C34        79.1518   64.6793   40.9685 Y5         2 LUT     -0.218862
    174 C35        78.1877   64.6415   42.0255 Y6         2 LUT     -0.023547
    175 C36        89.7328   66.6883   36.3166 Y7         2 LUT     -0.393485
    176 C37        88.9807   64.2729   37.1463 Y7         2 LUT     -0.393485
    177 C38        86.0918   67.2592   33.8242 Y9         2 LUT     -0.387526
    178 C39        85.4137   66.9155   39.3131 W1         2 LUT     -0.322618
    179 C40        81.2841   65.1784   42.2538 W2         2 LUT     -0.358472
    180 H403       81.1075   66.0763   42.8638 R7         2 LUT      0.097720
    181 H402       81.0277   64.3202   42.8040 R7         2 LUT      0.097720
    182 H401       82.3364   65.0658   42.0112 R7         2 LUT      0.097720
    183 H393       85.7370   67.8963   38.8942 R4         2 LUT      0.082505
    184 H392       84.9156   67.0995   40.2307 R4         2 LUT      0.082505
    185 H391       86.3000   66.4315   39.6160 R4         2 LUT      0.082505
    186 H383       85.2659   66.5656   33.5408 R1         2 LUT      0.104030
    187 H382       85.7668   67.8268   34.6953 R1         2 LUT      0.104030
    188 H381       86.2599   67.9831   32.9610 R1         2 LUT      0.104030
    189 H373       89.9909   63.8313   37.0505 T4         2 LUT      0.089537
    190 H372       88.7913   64.5933   38.1461 T4         2 LUT      0.089537
    191 H371       88.3115   63.5069   36.9881 T4         2 LUT      0.089537
    192 H363       89.6275   67.5019   35.5142 T4         2 LUT      0.089537
    193 H362       89.5566   67.1165   37.2715 T4         2 LUT      0.089537
    194 H361       90.7200   66.3320   36.4083 T4         2 LUT      0.089537
    195 H222       90.7386   64.3806   34.8449 U2         2 LUT      0.127376
    196 H221       89.1054   63.7529   34.5261 U2         2 LUT      0.127376
    197 H203       74.4498   63.3432   40.8061 R7         2 LUT      0.087068
    198 H202       73.8451   61.9263   41.5548 R7         2 LUT      0.087068
    199 H201       72.9924   63.5243   41.5485 R7         2 LUT      0.087068
    200 H193       71.1098   60.2690   44.2950 R4         2 LUT      0.089716
    201 H192       70.9865   59.5262   45.7924 R4         2 LUT      0.089716
    202 H191       69.5960   60.6936   45.2453 R4         2 LUT      0.089716
    203 H183       67.2244   64.0575   47.5130 R1         2 LUT      0.094572
    204 H182       68.9526   64.3617   47.5990 R1         2 LUT      0.094572
    205 H181       68.4421   62.9601   46.8839 R1         2 LUT      0.094572
    206 H173       71.4595   61.2922   50.7041 T4         2 LUT      0.093752
    207 H172       70.6760   60.3620   51.9966 T4         2 LUT      0.093752
    208 H171       70.6799   59.8176   50.2263 T4         2 LUT      0.093752
    209 H163       68.2175   59.4638   50.6233 T4         2 LUT      0.093752
    210 H162       68.1312   60.3020   52.2633 T4         2 LUT      0.093752
    211 H161       67.0702   60.8614   50.9536 T4         2 LUT      0.093752
    212 HO3        67.4968   65.3382   52.0722 Q1         2 LUT      0.300121
    213 H8         71.0819   62.9259   47.7594 U7         2 LUT      0.080784
    214 H7         69.6207   60.2505   47.8143 U6         2 LUT      0.042190
    215 H42        66.3703   63.0004   50.0624 U5         2 LUT      0.145166
    216 H41        67.1153   64.4290   49.7368 U5         2 LUT      0.145166
    217 H35        78.4656   65.1860   42.9522 T3         2 LUT      0.077919
    218 H34        78.7369   64.2774   40.0226 T2         2 LUT      0.073626
    219 H32        80.8702   64.6694   38.8918 T1         2 LUT      0.092510
    220 H31        82.8311   66.4653   40.3768 U9         2 LUT      0.070048
    221 H30        82.7821   65.3399   37.5053 U8         2 LUT      0.085442
    222 H3         67.1345   63.1451   52.0546 U3         2 LUT     -0.031596
    223 H28        84.6332   65.6618   36.1540 U7         2 LUT      0.084728
    224 H27        87.2458   66.7376   37.4867 U6         2 LUT      0.087291
    225 H26        86.7051   64.9169   35.2117 Q6         2 LUT      0.075325
    226 H24        88.1335   66.8147   32.2814 Q5         2 LUT      0.094482
    227 H23        90.4390   66.2166   33.6638 U3         2 LUT     -0.024869
    228 H22        69.2056   62.4126   52.6607 U2         2 LUT      0.127376
    229 H21        69.9796   63.3980   51.4124 U2         2 LUT      0.127376
    230 H15        76.7224   63.6188   40.9460 T3         2 LUT      0.093200
    231 H14        76.3056   64.3286   43.8607 T2         2 LUT      0.068865
    232 H12        74.4621   63.6158   45.0621 T1         2 LUT      0.095507
    233 H11        72.3053   62.1553   43.5526 U9         2 LUT      0.068930
    234 H10        72.8123   63.1341   46.3857 U8         2 LUT      0.083911
    235 H1         90.1157   64.8919   31.5884 Q1         2 LUT      0.297311
@<TRIPOS>BOND
    1     6     1 1
    2     7     2 1
    3     8     3 1
    4     9     4 1
    5    11     4 1
    6    12     6 1
    7    13     9 1
    8    16     9 1
    9    25     5 1
   10    25    16 1
   11    26    10 1
   12    26    17 1
   13    27    18 1
   14    28    14 1
   15    28    19 1
   16    29    12 1
   17    30    13 1
   18    31    24 1
   19    32     1 1
   20    32    25 1
   21    33    21 1
   22    33    26 1
   23    34    22 1
   24    34    27 1
   25    35    23 1
   26    35    28 1
   27    36    12 1
   28    36    24 1
   29    37    13 1
   30    37    15 1
   31    38    31 1
   32    39    20 1
   33    39    32 1
   34    40     2 1
   35    40    33 1
   36    41     3 1
   37    41    34 1
   38    42     4 1
   39    42    35 1
   40    43    38 1
   41    44     5 1
   42    44    17 1
   43    44    39 1
   44    45    10 1
   45    45    18 1
   46    45    40 1
   47    46    19 1
   48    46    41 1
   49    47    14 1
   50    47    16 1
   51    47    42 1
   52    48    38 1
   53    49    48 1
   54    50    49 1
   55    51    50 1
   56    52    51 1
   57    53    51 1
   58    54    53 1
   59    55    54 1
   60    56    55 1
   61    57    56 1
   62    58    56 1
   63    59    58 1
   64    60    59 1
   65    61    60 1
   66    62    61 1
   67    63    61 1
   68    64    27 1
   69    64    46 1
   70    65     5 1
   71    65    10 1
   72    65    64 1
   73    65    14 1
   74    66    23 1
   75    67    23 1
   76    68    23 1
   77    69    22 1
   78    70    22 1
   79    71    22 1
   80    72    21 1
   81    73    21 1
   82    74    21 1
   83    75    20 1
   84    76    20 1
   85    77    20 1
   86    78    15 1
   87    79    15 1
   88    80    15 1
   89    81     8 1
   90    82     8 1
   91    83     8 1
   92    84     7 1
   93    85     7 1
   94    86     6 1
   95    87     6 1
   96    88     3 1
   97    89     3 1
   98    90     1 1
   99    91     1 1
  100    92    63 1
  101    93    63 1
  102    94    63 1
  103    95    62 1
  104    96    62 1
  105    97    62 1
  106    98    60 1
  107    99    60 1
  108   100    59 1
  109   101    59 1
  110   102    58 1
  111   103    58 1
  112   104    57 1
  113   105    57 1
  114   106    57 1
  115   107    55 1
  116   108    55 1
  117   109    54 1
  118   110    54 1
  119   111    53 1
  120   112    53 1
  121   113    19 1
  122   114    18 1
  123   115    17 1
  124   116     9 1
  125   117     2 1
  126   118    52 1
  127   119    52 1
  128   120    52 1
  129   121    51 1
  130   122    50 1
  131   123    50 1
  132   124    49 1
  133   125    49 1
  134   126    48 1
  135   127    48 1
  136   128    43 1
  137   129    43 1
  138   130    43 1
  139   131    39 1
  140   132    32 1
  141   133    31 1
  142   134    61 1
  143   135    56 1
  144   136    24 1
  145   137    24 1
  146   139   138 1
  147   140   139 1
  148   141   140 1
  149   142   140 1
  150   143   142 1
  151   144   138 1
  152   144   143 1
  153   145   144 1
  154   146   145 1
  155   147   146 1
  156   148   147 1
  157   149   148 1
  158   150   149 1
  159   151   150 1
  160   152   151 1
  161   153   152 1
  162   154   138 1
  163   155   138 1
  164   156   143 1
  165   157   147 1
  166   158   151 1
  167   160   159 1
  168   161   160 1
  169   162   161 1
  170   163   161 1
  171   164   163 1
  172   165   159 1
  173   165   164 1
  174   166   165 1
  175   167   166 1
  176   168   167 1
  177   169   168 1
  178   170   169 1
  179   171   170 1
  180   172   171 1
  181   173   172 1
  182   174   153 1
  183   174   173 1
  184   175   159 1
  185   176   159 1
  186   177   164 1
  187   178   168 1
  188   179   172 1
  189   180   179 1
  190   181   179 1
  191   182   179 1
  192   183   178 1
  193   184   178 1
  194   185   178 1
  195   186   177 1
  196   187   177 1
  197   188   177 1
  198   189   176 1
  199   190   176 1
  200   191   176 1
  201   192   175 1
  202   193   175 1
  203   194   175 1
  204   195   160 1
  205   196   160 1
  206   197   158 1
  207   198   158 1
  208   199   158 1
  209   200   157 1
  210   201   157 1
  211   202   157 1
  212   203   156 1
  213   204   156 1
  214   205   156 1
  215   206   155 1
  216   207   155 1
  217   208   155 1
  218   209   154 1
  219   210   154 1
  220   211   154 1
  221   212   141 1
  222   213   146 1
  223   214   145 1
  224   215   142 1
  225   216   142 1
  226   217   174 1
  227   218   173 1
  228   219   171 1
  229   220   170 1
  230   221   169 1
  231   222   140 1
  232   223   167 1
  233   224   166 1
  234   225   165 1
  235   226   163 1
  236   227   161 1
  237   228   139 1
  238   229   139 1
  239   230   153 1
  240   231   152 1
  241   232   150 1
  242   233   149 1
  243   234   148 1
  244   235   162 1
  245   65    153 1
  246   65    174 1
@<TRIPOS>SUBSTRUCTURE
      1 CLA               1 ****               0 ****  **** 
      2 LUT             138 ****               0 ****  **** 
