@<TRIPOS>MOLECULE
Cpptraj generated mol2 file.
  235   246     2     0     0
SMALL
USER_CHARGES


@<TRIPOS>ATOM
      1 CAA        78.6982   57.1094   34.7599 a2         1 CLA     -0.055900
      2 CAB        78.6773   61.5387   43.5465 c8         1 CLA     -0.148500
      3 CAC        71.6086   57.7022   43.1911 a2         1 CLA     -0.012600
      4 CAD        74.3922   55.0265   36.0271 ck         1 CLA      0.398800
      5 NA         77.6363   57.9309   38.1527 ns         1 CLA     -0.225500
      6 CBA        80.0516   57.0785   33.8839 a2         1 CLA     -0.135000
      7 CBB        79.9416   61.5888   44.0756 c0         1 CLA     -0.395200
      8 CBC        71.6712   56.1869   43.4368 a3         1 CLA     -0.037700
      9 CBD        75.9341   55.3387   35.7444 a1         1 CLA     -0.053900
     10 NB         77.4046   59.7889   40.5833 nm         1 CLA     -0.295700
     11 OBD        73.7221   54.3063   35.3231 o2         1 CLA     -0.494600
     12 CGA        80.6533   55.7171   33.6586 c4         1 CLA      0.827000
     13 CGD        76.7415   54.0614   35.5680 c4         1 CLA      0.655300
     14 ND         74.7634   57.2434   38.7370 nm         1 CLA     -0.291600
     15 CED        77.1304   51.8176   36.1904 a3         1 CLA      0.005400
     16 CHA        76.2577   56.3599   36.9043 cs         1 CLA     -0.123800
     17 CHB        79.3107   59.4581   39.0883 aa         1 CLA     -0.291900
     18 CHC        76.0593   60.0670   42.6878 aa         1 CLA     -0.090400
     19 CHD        72.8649   57.2423   40.2737 aa         1 CLA     -0.052000
     20 CMA        81.1465   57.5879   37.3993 a3         1 CLA     -0.230700
     21 CMB        80.6878   61.4328   40.9269 a3         1 CLA     -0.180800
     22 CMC        73.5967   59.6843   44.6463 a3         1 CLA     -0.134000
     23 CMD        71.4705   55.4467   37.9530 a3         1 CLA     -0.141100
     24 C1         81.5631   53.8817   34.8604 a2         1 CLA      0.023000
     25 C1A        77.4524   57.1279   37.0509 ac         1 CLA     -0.015100
     26 C1B        78.6528   60.0389   40.1664 cr         1 CLA      0.054700
     27 C1C        74.8907   59.3519   42.3673 cn         1 CLA     -0.005600
     28 C1D        73.4058   56.8244   39.0856 ap         1 CLA     -0.047300
     29 O1A        80.4766   55.0900   32.6303 o2         1 CLA     -0.610800
     30 O1D        77.5161   53.8739   34.6266 o2         1 CLA     -0.558200
     31 C2         81.1876   53.5012   36.1968 c8         1 CLA     -0.325100
     32 C2A        78.7783   56.9534   36.3012 a1         1 CLA      0.098600
     33 C2B        79.2969   60.9160   41.1319 cb         1 CLA      0.088500
     34 C2C        73.7719   59.1700   43.2190 cb         1 CLA      0.053700
     35 C2D        72.9127   55.9305   38.1032 cb         1 CLA      0.058900
     36 O2A        81.2220   55.2463   34.8295 o1         1 CLA     -0.437200
     37 O2D        76.4280   53.0733   36.5510 o1         1 CLA     -0.357600
     38 C3         81.7808   52.7946   37.1370 c5         1 CLA      0.031200
     39 C3A        79.6687   58.0087   36.9668 a1         1 CLA      0.166800
     40 C3B        78.4503   60.9241   42.2290 cb         1 CLA      0.035000
     41 C3C        72.8717   58.2950   42.6457 cb         1 CLA     -0.089900
     42 C3D        74.0192   55.7513   37.2571 cb         1 CLA     -0.035900
     43 C4         81.4707   51.2566   37.3807 a3         1 CLA     -0.053300
     44 C4A        78.8603   58.4822   38.1880 ac         1 CLA      0.001800
     45 C4B        77.2481   60.2235   41.8868 cn         1 CLA     -0.020900
     46 C4C        73.4356   57.9894   41.3213 cr         1 CLA     -0.044400
     47 C4D        75.1111   56.4834   37.6959 c6         1 CLA     -0.046000
     48 C5         82.8588   53.2914   38.0841 a2         1 CLA     -0.070400
     49 C6         83.5500   54.5861   37.6861 a2         1 CLA      0.043900
     50 C7         84.0319   55.2981   38.9565 a2         1 CLA     -0.150000
     51 C8         84.7877   56.6389   38.8526 a1         1 CLA      0.064200
     52 C9         86.1828   56.4412   38.1724 a3         1 CLA     -0.259300
     53 C10        84.8896   57.2727   40.3122 a2         1 CLA     -0.071900
     54 C11        83.4931   57.6958   40.8916 a2         1 CLA      0.014500
     55 C12        83.7111   58.6045   42.1397 a2         1 CLA     -0.112100
     56 C13        84.5903   58.1023   43.4062 a1         1 CLA      0.089200
     57 C14        83.9650   56.8942   44.0977 a3         1 CLA     -0.239100
     58 C15        84.9594   59.2981   44.4199 a2         1 CLA     -0.102200
     59 C16        83.8669   60.1708   45.0682 a2         1 CLA      0.023900
     60 C17        84.3270   61.0977   46.1324 a2         1 CLA     -0.105700
     61 C18        83.2419   62.0079   46.6182 a1         1 CLA      0.206800
     62 C19        82.0999   61.3121   47.4230 a3         1 CLA     -0.280100
     63 C20        83.8085   63.0591   47.5904 a3         1 CLA     -0.280100
     64 NC         74.6215   58.7275   41.1662 nx         1 CLA     -0.309200
     65 MG         76.0891   58.6422   39.6062 mg         1 CLA      0.895000
     66 HMD3       70.7800   56.2668   37.8191 dc         1 CLA      0.064300
     67 HMD2       71.5727   54.6923   37.1922 dc         1 CLA      0.064300
     68 HMD1       71.2009   54.9733   38.8951 dc         1 CLA      0.064300
     69 HMC3       73.2418   60.7126   44.6750 dc         1 CLA      0.052100
     70 HMC2       72.7678   59.2811   45.2360 dc         1 CLA      0.052100
     71 HMC1       74.4721   59.5170   45.2632 dc         1 CLA      0.052100
     72 HMB3       80.8409   62.3333   41.5933 dc         1 CLA      0.063600
     73 HMB2       81.4244   60.7599   41.2541 dc         1 CLA      0.063600
     74 HMB1       80.8017   61.9812   39.9316 dc         1 CLA      0.063600
     75 HMA3       81.6350   58.3567   37.8804 dc         1 CLA      0.058300
     76 HMA2       81.0532   56.6351   37.9131 dc         1 CLA      0.058300
     77 HMA1       81.6667   57.3593   36.4981 dc         1 CLA      0.058300
     78 HED3       76.7679   51.0005   36.7542 dc         1 CLA      0.079300
     79 HED2       76.9592   51.5579   35.1646 dc         1 CLA      0.079300
     80 HED1       78.2449   51.8620   36.3533 dc         1 CLA      0.079300
     81 HBC3       70.6209   55.8531   43.6715 dc         1 CLA      0.016300
     82 HBC2       72.1041   55.6209   42.5863 dc         1 CLA      0.016300
     83 HBC1       72.3331   55.9364   44.2931 dc         1 CLA      0.016300
     84 HBB2       80.0151   61.8941   45.1463 da         1 CLA      0.183000
     85 HBB1       80.8143   61.1888   43.5590 da         1 CLA      0.183000
     86 HBA2       79.6522   57.5244   32.9693 dc         1 CLA      0.029400
     87 HBA1       80.8348   57.6592   34.3433 dc         1 CLA      0.029400
     88 HAC2       71.3137   58.2204   44.0878 dc         1 CLA      0.029300
     89 HAC1       70.8259   57.8078   42.4732 dc         1 CLA      0.029300
     90 HAA2       78.0407   56.3940   34.3300 dc         1 CLA      0.028700
     91 HAA1       78.3649   58.0846   34.5364 dc         1 CLA      0.028700
     92 H203       84.4031   63.6788   46.8879 dc         1 CLA      0.065600
     93 H202       82.9908   63.6403   47.9900 dc         1 CLA      0.065600
     94 H201       84.4483   62.7032   48.3694 dc         1 CLA      0.065600
     95 H193       81.6810   60.5320   46.7258 dc         1 CLA      0.065600
     96 H192       82.6883   60.7866   48.2159 dc         1 CLA      0.065600
     97 H191       81.3712   61.9628   47.7730 dc         1 CLA      0.065600
     98 H172       84.8002   60.5517   46.9845 dc         1 CLA      0.027600
     99 H171       85.1353   61.6819   45.6786 dc         1 CLA      0.027600
    100 H162       83.4496   60.6678   44.2374 dc         1 CLA      0.002900
    101 H161       83.1357   59.4544   45.4670 dc         1 CLA      0.002900
    102 H152       85.5979   58.7244   45.1544 dc         1 CLA      0.029100
    103 H151       85.5606   60.0920   43.9189 dc         1 CLA      0.029100
    104 H143       84.7077   56.3426   44.5964 dc         1 CLA      0.063600
    105 H142       83.2117   57.2381   44.8245 dc         1 CLA      0.063600
    106 H141       83.3900   56.2898   43.4159 dc         1 CLA      0.063600
    107 H122       84.3336   59.5041   41.8670 dc         1 CLA      0.032500
    108 H121       82.6939   58.9767   42.4622 dc         1 CLA      0.032500
    109 H112       82.8674   58.2458   40.2158 dc         1 CLA      0.006600
    110 H111       82.9729   56.8138   41.1965 dc         1 CLA      0.006600
    111 H102       85.4662   56.6216   40.9384 dc         1 CLA      0.024100
    112 H101       85.4486   58.1958   40.3185 dc         1 CLA      0.024100
    113 HHD        71.8064   56.9324   40.3789 da         1 CLA      0.174300
    114 HHC        76.0203   60.6890   43.6016 da         1 CLA      0.136800
    115 HHB        80.2459   59.9399   38.7841 da         1 CLA      0.138300
    116 HBD        76.0421   55.8660   34.8335 dc         1 CLA      0.107700
    117 HAB        77.8505   61.9036   44.1806 da         1 CLA      0.155200
    118 H93        86.7356   55.8499   38.8553 dc         1 CLA      0.069500
    119 H92        86.0763   55.9199   37.2084 dc         1 CLA      0.069500
    120 H91        86.7426   57.3719   38.0258 dc         1 CLA      0.069500
    121 H8         84.1738   57.2749   38.2145 dc         1 CLA      0.029300
    122 H72        83.2003   55.3820   39.6347 dc         1 CLA      0.044400
    123 H71        84.8627   54.6874   39.4414 dc         1 CLA      0.044400
    124 H62        84.3830   54.3937   36.9979 dc         1 CLA      0.015600
    125 H61        82.8173   55.2121   37.1918 dc         1 CLA      0.015600
    126 H52        82.3024   53.4826   38.9216 dc         1 CLA      0.033200
    127 H51        83.7376   52.6055   38.2442 dc         1 CLA      0.033200
    128 H43        81.2023   51.0458   38.4373 dc         1 CLA      0.037000
    129 H42        80.6747   50.9665   36.8021 dc         1 CLA      0.037000
    130 H41        82.3435   50.6261   37.0919 dc         1 CLA      0.037000
    131 H3A        79.7004   58.8843   36.3035 dc         1 CLA      0.041100
    132 H2A        79.0957   55.9098   36.4212 dc         1 CLA      0.083100
    133 H2         80.2989   54.0029   36.6240 da         1 CLA      0.180900
    134 H18        82.7968   62.6231   45.7489 dc         1 CLA     -0.003900
    135 H13        85.4035   57.6219   42.8604 dc         1 CLA      0.019700
    136 H12        80.7992   53.2870   34.3124 dc         1 CLA      0.120400
    137 H11        82.5813   53.7161   34.5294 dc         1 CLA      0.120400
    138 C1         68.3367   60.7277   49.7570 Z1         2 LUT      0.509236
    139 C2         67.1105   60.6711   50.6772 Z2         2 LUT     -0.434695
    140 C3         66.3511   61.9333   51.0625 Z3         2 LUT      0.437453
    141 O3         66.7564   62.3207   52.3884 S1         2 LUT     -0.547129
    142 C4         66.5873   63.0397   50.0423 Z4         2 LUT     -0.468603
    143 C5         67.2371   62.6959   48.7154 Z5         2 LUT      0.279246
    144 C6         68.0292   61.5886   48.5756 Z6         2 LUT     -0.305473
    145 C7         68.3719   61.0387   47.2725 Z7         2 LUT      0.069402
    146 C8         69.2510   61.7205   46.4259 Z8         2 LUT     -0.191631
    147 C9         69.6999   61.3069   45.0615 Z9         2 LUT      0.196698
    148 C10        70.6202   62.1099   44.5126 Y1         2 LUT     -0.208611
    149 C11        71.3203   61.9782   43.2249 Y2         2 LUT      0.030784
    150 C12        72.4819   62.6853   43.0314 Y3         2 LUT     -0.220316
    151 C13        73.4116   62.6523   41.9297 Y4         2 LUT      0.215937
    152 C14        74.5918   63.4193   42.1371 Y5         2 LUT     -0.185793
    153 C15        75.7239   63.4172   41.2621 Y6         2 LUT     -0.057835
    154 C16        68.9419   59.3657   49.4956 Y7         2 LUT     -0.405615
    155 C17        69.3409   61.5585   50.7013 Y7         2 LUT     -0.405615
    156 C18        66.7461   63.6046   47.6225 Y9         2 LUT     -0.369639
    157 C19        69.1202   60.0374   44.4288 W1         2 LUT     -0.333362
    158 C20        73.1263   61.8260   40.6837 W2         2 LUT     -0.323439
    159 C21        87.8752   64.1630   35.5859 Z1         2 LUT      0.406104
    160 C22        88.5419   63.6640   34.2851 Z2         2 LUT     -0.404965
    161 C23        88.6104   64.7268   33.2523 Z3         2 LUT      0.391255
    162 O23        89.4171   64.2065   32.1370 S1         2 LUT     -0.528210
    163 C24        87.2951   65.5104   33.0529 W6         2 LUT     -0.258361
    164 C25        86.2267   65.3567   33.8908 Z5         2 LUT      0.133546
    165 C26        86.3380   64.5458   35.1529 W8         2 LUT     -0.147008
    166 C27        85.5128   65.2513   36.2009 Z7         2 LUT      0.023843
    167 C28        84.1849   65.0182   36.5621 Z8         2 LUT     -0.216987
    168 C29        83.3311   65.6330   37.6583 Z9         2 LUT      0.206524
    169 C30        82.1945   65.0095   38.0892 Y1         2 LUT     -0.215556
    170 C31        81.2071   65.4628   39.0800 Y2         2 LUT      0.025142
    171 C32        80.0737   64.7201   39.4458 Y3         2 LUT     -0.212209
    172 C33        79.0670   64.9443   40.4293 Y4         2 LUT      0.240937
    173 C34        78.0392   64.0144   40.4990 Y5         2 LUT     -0.218862
    174 C35        76.9117   64.0852   41.3336 Y6         2 LUT     -0.023547
    175 C36        88.7262   65.3288   36.0525 Y7         2 LUT     -0.393485
    176 C37        88.0607   63.0923   36.6389 Y7         2 LUT     -0.393485
    177 C38        84.8714   66.0010   33.4020 Y9         2 LUT     -0.387526
    178 C39        83.8429   66.9520   38.2838 W1         2 LUT     -0.322618
    179 C40        79.3238   66.0883   41.3548 W2         2 LUT     -0.358472
    180 H403       78.4992   66.2652   42.0629 R7         2 LUT      0.097720
    181 H402       80.2728   66.0529   41.9315 R7         2 LUT      0.097720
    182 H401       79.3385   67.0201   40.7915 R7         2 LUT      0.097720
    183 H393       84.6552   67.3702   37.6497 R4         2 LUT      0.082505
    184 H392       83.0958   67.7427   38.4926 R4         2 LUT      0.082505
    185 H391       84.2670   66.8848   39.2379 R4         2 LUT      0.082505
    186 H383       84.6068   67.0422   33.8883 R1         2 LUT      0.104030
    187 H382       84.9321   66.2868   32.3868 R1         2 LUT      0.104030
    188 H381       84.0886   65.3059   33.5795 R1         2 LUT      0.104030
    189 H373       89.1426   63.0998   36.9790 T4         2 LUT      0.089537
    190 H372       87.3580   63.2213   37.4753 T4         2 LUT      0.089537
    191 H371       87.8855   62.1216   36.2502 T4         2 LUT      0.089537
    192 H363       89.7739   65.0217   36.1736 T4         2 LUT      0.089537
    193 H362       88.7665   66.1914   35.3937 T4         2 LUT      0.089537
    194 H361       88.4028   65.7957   37.0259 T4         2 LUT      0.089537
    195 H222       89.5778   63.3030   34.4072 U2         2 LUT      0.127376
    196 H221       88.0210   62.8138   33.8629 U2         2 LUT      0.127376
    197 H203       72.8963   60.7817   40.8952 R7         2 LUT      0.087068
    198 H202       72.2478   62.2708   40.2328 R7         2 LUT      0.087068
    199 H201       73.8846   61.7612   39.9437 R7         2 LUT      0.087068
    200 H193       68.0298   60.0461   44.3829 R4         2 LUT      0.089716
    201 H192       69.4171   59.7784   43.4445 R4         2 LUT      0.089716
    202 H191       69.3676   59.1260   45.0098 R4         2 LUT      0.089716
    203 H183       65.7443   63.9788   47.7948 R1         2 LUT      0.094572
    204 H182       67.3578   64.5302   47.5510 R1         2 LUT      0.094572
    205 H181       66.7477   63.0946   46.6033 R1         2 LUT      0.094572
    206 H173       68.9436   62.5240   51.0163 T4         2 LUT      0.093752
    207 H172       69.6109   61.0376   51.6120 T4         2 LUT      0.093752
    208 H171       70.2734   61.6496   50.1296 T4         2 LUT      0.093752
    209 H163       69.0416   58.9300   50.5339 T4         2 LUT      0.093752
    210 H162       68.2535   58.7946   48.9100 T4         2 LUT      0.093752
    211 H161       69.9240   59.4528   48.9771 T4         2 LUT      0.093752
    212 HO3        66.5761   61.8407   53.1890 Q1         2 LUT      0.300121
    213 H8         69.8439   62.5770   46.8700 U7         2 LUT      0.080784
    214 H7         68.0631   60.0801   46.8989 U6         2 LUT      0.042190
    215 H42        65.7785   63.8127   49.9162 U5         2 LUT      0.145166
    216 H41        67.3053   63.7911   50.4612 U5         2 LUT      0.145166
    217 H35        76.9998   64.7197   42.1139 T3         2 LUT      0.077919
    218 H34        78.0038   63.1927   39.7733 T2         2 LUT      0.073626
    219 H32        79.9517   63.7626   38.8791 T1         2 LUT      0.092510
    220 H31        81.4193   66.3733   39.6883 U9         2 LUT      0.070048
    221 H30        81.9448   64.1060   37.5246 U8         2 LUT      0.085442
    222 H3         65.2529   61.7242   50.9946 U3         2 LUT     -0.031596
    223 H28        83.8864   64.1317   35.9980 U7         2 LUT      0.084728
    224 H27        86.0954   65.8879   36.8535 U6         2 LUT      0.087291
    225 H26        85.7086   63.7988   34.6472 Q6         2 LUT      0.075325
    226 H24        87.2023   66.1841   32.1578 Q5         2 LUT      0.094482
    227 H23        89.2322   65.5046   33.5311 U3         2 LUT     -0.024869
    228 H22        66.4036   60.1449   50.0701 U2         2 LUT      0.127376
    229 H21        67.3005   59.9816   51.5319 U2         2 LUT      0.127376
    230 H15        75.6571   62.6857   40.4670 T3         2 LUT      0.093200
    231 H14        74.6802   63.8639   43.1751 T2         2 LUT      0.068865
    232 H12        72.8096   63.3349   43.7787 T1         2 LUT      0.095507
    233 H11        70.9371   61.2202   42.6068 U9         2 LUT      0.068930
    234 H10        70.8692   63.0967   44.9546 U8         2 LUT      0.083911
    235 H1         88.8206   64.0077   31.3790 Q1         2 LUT      0.297311
@<TRIPOS>BOND
    1     6     1 1
    2     7     2 1
    3     8     3 1
    4     9     4 1
    5    11     4 1
    6    12     6 1
    7    13     9 1
    8    16     9 1
    9    25     5 1
   10    25    16 1
   11    26    10 1
   12    26    17 1
   13    27    18 1
   14    28    14 1
   15    28    19 1
   16    29    12 1
   17    30    13 1
   18    31    24 1
   19    32     1 1
   20    32    25 1
   21    33    21 1
   22    33    26 1
   23    34    22 1
   24    34    27 1
   25    35    23 1
   26    35    28 1
   27    36    12 1
   28    36    24 1
   29    37    13 1
   30    37    15 1
   31    38    31 1
   32    39    20 1
   33    39    32 1
   34    40     2 1
   35    40    33 1
   36    41     3 1
   37    41    34 1
   38    42     4 1
   39    42    35 1
   40    43    38 1
   41    44     5 1
   42    44    17 1
   43    44    39 1
   44    45    10 1
   45    45    18 1
   46    45    40 1
   47    46    19 1
   48    46    41 1
   49    47    14 1
   50    47    16 1
   51    47    42 1
   52    48    38 1
   53    49    48 1
   54    50    49 1
   55    51    50 1
   56    52    51 1
   57    53    51 1
   58    54    53 1
   59    55    54 1
   60    56    55 1
   61    57    56 1
   62    58    56 1
   63    59    58 1
   64    60    59 1
   65    61    60 1
   66    62    61 1
   67    63    61 1
   68    64    27 1
   69    64    46 1
   70    65     5 1
   71    65    10 1
   72    65    64 1
   73    65    14 1
   74    66    23 1
   75    67    23 1
   76    68    23 1
   77    69    22 1
   78    70    22 1
   79    71    22 1
   80    72    21 1
   81    73    21 1
   82    74    21 1
   83    75    20 1
   84    76    20 1
   85    77    20 1
   86    78    15 1
   87    79    15 1
   88    80    15 1
   89    81     8 1
   90    82     8 1
   91    83     8 1
   92    84     7 1
   93    85     7 1
   94    86     6 1
   95    87     6 1
   96    88     3 1
   97    89     3 1
   98    90     1 1
   99    91     1 1
  100    92    63 1
  101    93    63 1
  102    94    63 1
  103    95    62 1
  104    96    62 1
  105    97    62 1
  106    98    60 1
  107    99    60 1
  108   100    59 1
  109   101    59 1
  110   102    58 1
  111   103    58 1
  112   104    57 1
  113   105    57 1
  114   106    57 1
  115   107    55 1
  116   108    55 1
  117   109    54 1
  118   110    54 1
  119   111    53 1
  120   112    53 1
  121   113    19 1
  122   114    18 1
  123   115    17 1
  124   116     9 1
  125   117     2 1
  126   118    52 1
  127   119    52 1
  128   120    52 1
  129   121    51 1
  130   122    50 1
  131   123    50 1
  132   124    49 1
  133   125    49 1
  134   126    48 1
  135   127    48 1
  136   128    43 1
  137   129    43 1
  138   130    43 1
  139   131    39 1
  140   132    32 1
  141   133    31 1
  142   134    61 1
  143   135    56 1
  144   136    24 1
  145   137    24 1
  146   139   138 1
  147   140   139 1
  148   141   140 1
  149   142   140 1
  150   143   142 1
  151   144   138 1
  152   144   143 1
  153   145   144 1
  154   146   145 1
  155   147   146 1
  156   148   147 1
  157   149   148 1
  158   150   149 1
  159   151   150 1
  160   152   151 1
  161   153   152 1
  162   154   138 1
  163   155   138 1
  164   156   143 1
  165   157   147 1
  166   158   151 1
  167   160   159 1
  168   161   160 1
  169   162   161 1
  170   163   161 1
  171   164   163 1
  172   165   159 1
  173   165   164 1
  174   166   165 1
  175   167   166 1
  176   168   167 1
  177   169   168 1
  178   170   169 1
  179   171   170 1
  180   172   171 1
  181   173   172 1
  182   174   153 1
  183   174   173 1
  184   175   159 1
  185   176   159 1
  186   177   164 1
  187   178   168 1
  188   179   172 1
  189   180   179 1
  190   181   179 1
  191   182   179 1
  192   183   178 1
  193   184   178 1
  194   185   178 1
  195   186   177 1
  196   187   177 1
  197   188   177 1
  198   189   176 1
  199   190   176 1
  200   191   176 1
  201   192   175 1
  202   193   175 1
  203   194   175 1
  204   195   160 1
  205   196   160 1
  206   197   158 1
  207   198   158 1
  208   199   158 1
  209   200   157 1
  210   201   157 1
  211   202   157 1
  212   203   156 1
  213   204   156 1
  214   205   156 1
  215   206   155 1
  216   207   155 1
  217   208   155 1
  218   209   154 1
  219   210   154 1
  220   211   154 1
  221   212   141 1
  222   213   146 1
  223   214   145 1
  224   215   142 1
  225   216   142 1
  226   217   174 1
  227   218   173 1
  228   219   171 1
  229   220   170 1
  230   221   169 1
  231   222   140 1
  232   223   167 1
  233   224   166 1
  234   225   165 1
  235   226   163 1
  236   227   161 1
  237   228   139 1
  238   229   139 1
  239   230   153 1
  240   231   152 1
  241   232   150 1
  242   233   149 1
  243   234   148 1
  244   235   162 1
  245   65    153 1
  246   65    174 1
@<TRIPOS>SUBSTRUCTURE
      1 CLA               1 ****               0 ****  **** 
      2 LUT             138 ****               0 ****  **** 
