@<TRIPOS>MOLECULE
Cpptraj generated mol2 file.
  235   246     2     0     0
SMALL
USER_CHARGES


@<TRIPOS>ATOM
      1 CAA        77.8449   59.1370   35.1226 a2         1 CLA     -0.055900
      2 CAB        77.6219   62.5411   44.2551 c8         1 CLA     -0.148500
      3 CAC        71.1084   57.9919   43.6102 a2         1 CLA     -0.012600
      4 CAD        74.2654   55.9350   36.4088 ck         1 CLA      0.398800
      5 NA         76.9644   59.3368   38.6120 ns         1 CLA     -0.225500
      6 CBA        79.1644   59.0937   34.2750 a2         1 CLA     -0.135000
      7 CBB        76.6394   62.8478   45.1449 c0         1 CLA     -0.395200
      8 CBC        71.1334   56.4404   43.5716 a3         1 CLA     -0.037700
      9 CBD        75.5994   56.6527   36.0330 a1         1 CLA     -0.053900
     10 NB         76.5764   60.7840   41.1313 nm         1 CLA     -0.295700
     11 OBD        73.7590   55.0896   35.7326 o2         1 CLA     -0.494600
     12 CGA        79.7691   57.7423   33.8470 c4         1 CLA      0.827000
     13 CGD        76.6342   55.5118   35.7555 c4         1 CLA      0.655300
     14 ND         74.3220   58.0504   39.1478 nm         1 CLA     -0.291600
     15 CED        77.5655   53.3885   36.5140 a3         1 CLA      0.005400
     16 CHA        75.8610   57.5605   37.2509 cs         1 CLA     -0.123800
     17 CHB        78.5957   60.8504   39.5756 aa         1 CLA     -0.291900
     18 CHC        75.4049   60.7377   43.2083 aa         1 CLA     -0.090400
     19 CHD        72.5072   57.6986   40.7810 aa         1 CLA     -0.052000
     20 CMA        80.4550   58.7234   37.9790 a3         1 CLA     -0.230700
     21 CMB        79.8669   62.6853   41.7752 a3         1 CLA     -0.180800
     22 CMC        73.0264   60.0216   45.1808 a3         1 CLA     -0.134000
     23 CMD        71.5540   55.5980   38.5004 a3         1 CLA     -0.141100
     24 C1         81.0352   55.8577   34.6504 a2         1 CLA      0.023000
     25 C1A        76.9440   58.4756   37.5123 ac         1 CLA     -0.015100
     26 C1B        77.8904   61.2570   40.7273 cr         1 CLA      0.054700
     27 C1C        74.3119   59.9474   42.9222 cn         1 CLA     -0.005600
     28 C1D        73.1247   57.4522   39.5231 ap         1 CLA     -0.047300
     29 O1A        79.6135   57.1889   32.7447 o2         1 CLA     -0.610800
     30 O1D        77.5789   55.6115   34.9108 o2         1 CLA     -0.558200
     31 C2         81.6869   55.4787   35.9735 c8         1 CLA     -0.325100
     32 C2A        78.1348   58.5875   36.5694 a1         1 CLA      0.098600
     33 C2B        78.4363   62.0837   41.8423 cb         1 CLA      0.088500
     34 C2C        73.2556   59.5269   43.7704 cb         1 CLA      0.053700
     35 C2D        72.7876   56.5108   38.5349 cb         1 CLA      0.058900
     36 O2A        80.5547   57.1789   34.8417 o1         1 CLA     -0.437200
     37 O2D        76.4965   54.4474   36.6322 o1         1 CLA     -0.357600
     38 C3         83.0513   55.6246   36.1238 c5         1 CLA      0.031200
     39 C3A        79.1332   59.4620   37.4692 a1         1 CLA      0.166800
     40 C3B        77.5024   62.0449   42.8480 cb         1 CLA      0.035000
     41 C3C        72.3787   58.6653   43.1383 cb         1 CLA     -0.089900
     42 C3D        73.7981   56.5563   37.6471 cb         1 CLA     -0.035900
     43 C4         83.9616   54.6012   35.5806 a3         1 CLA     -0.053300
     44 C4A        78.1969   59.8790   38.6510 ac         1 CLA      0.001800
     45 C4B        76.3876   61.1971   42.4075 cn         1 CLA     -0.020900
     46 C4C        72.9582   58.5595   41.7811 cr         1 CLA     -0.044400
     47 C4D        74.7133   57.5113   38.0431 c6         1 CLA     -0.046000
     48 C5         83.6010   56.8952   36.8909 a2         1 CLA     -0.070400
     49 C6         84.6968   56.6254   37.9174 a2         1 CLA      0.043900
     50 C7         84.5744   57.4212   39.2273 a2         1 CLA     -0.150000
     51 C8         84.5425   59.0068   39.0431 a1         1 CLA      0.064200
     52 C9         85.7428   59.5711   38.2761 a3         1 CLA     -0.259300
     53 C10        84.5097   59.7269   40.4069 a2         1 CLA     -0.071900
     54 C11        83.2848   59.3310   41.2443 a2         1 CLA      0.014500
     55 C12        82.9348   60.3683   42.2791 a2         1 CLA     -0.112100
     56 C13        83.8703   60.5250   43.4880 a1         1 CLA      0.089200
     57 C14        83.9571   59.2719   44.4223 a3         1 CLA     -0.239100
     58 C15        83.4253   61.7351   44.2672 a2         1 CLA     -0.102200
     59 C16        84.3339   62.2545   45.3953 a2         1 CLA      0.023900
     60 C17        83.6787   63.4937   46.2102 a2         1 CLA     -0.105700
     61 C18        84.4679   63.8613   47.5844 a1         1 CLA      0.206800
     62 C19        86.0285   64.1185   47.3735 a3         1 CLA     -0.280100
     63 C20        83.7472   65.0843   48.0983 a3         1 CLA     -0.280100
     64 NC         74.0993   59.3938   41.6826 nx         1 CLA     -0.309200
     65 MG         75.4661   59.4975   40.0733 mg         1 CLA      0.895000
     66 HMD3       71.4391   55.0945   39.4732 dc         1 CLA      0.064300
     67 HMD2       70.7180   56.2249   38.2974 dc         1 CLA      0.064300
     68 HMD1       71.7027   54.8725   37.7204 dc         1 CLA      0.064300
     69 HMC3       73.3258   61.0367   45.2464 dc         1 CLA      0.052100
     70 HMC2       71.9204   59.9555   45.3458 dc         1 CLA      0.052100
     71 HMC1       73.5217   59.4205   45.9080 dc         1 CLA      0.052100
     72 HMB3       80.0369   63.1018   42.7661 dc         1 CLA      0.063600
     73 HMB2       80.4461   61.8311   41.4592 dc         1 CLA      0.063600
     74 HMB1       79.9260   63.4560   40.9243 dc         1 CLA      0.063600
     75 HMA3       80.1346   57.8965   38.4997 dc         1 CLA      0.058300
     76 HMA2       80.8696   58.2782   37.1186 dc         1 CLA      0.058300
     77 HMA1       81.1680   59.2753   38.5416 dc         1 CLA      0.058300
     78 HED3       77.6203   52.8676   35.5713 dc         1 CLA      0.079300
     79 HED2       78.4595   53.9570   36.6486 dc         1 CLA      0.079300
     80 HED1       77.3772   52.6382   37.2340 dc         1 CLA      0.079300
     81 HBC3       71.9524   56.1528   44.2175 dc         1 CLA      0.016300
     82 HBC2       70.2364   56.2071   44.1287 dc         1 CLA      0.016300
     83 HBC1       71.1628   55.9656   42.6121 dc         1 CLA      0.016300
     84 HBB2       77.0222   63.3379   46.0546 da         1 CLA      0.183000
     85 HBB1       75.5600   62.7860   45.0001 da         1 CLA      0.183000
     86 HBA2       79.0252   59.5923   33.3265 dc         1 CLA      0.029400
     87 HBA1       79.9897   59.5469   34.8578 dc         1 CLA      0.029400
     88 HAC2       70.8799   58.2033   44.6302 dc         1 CLA      0.029300
     89 HAC1       70.1210   58.2969   43.1081 dc         1 CLA      0.029300
     90 HAA2       77.1058   58.4616   34.6140 dc         1 CLA      0.028700
     91 HAA1       77.4241   60.1944   35.1861 dc         1 CLA      0.028700
     92 H203       84.0777   65.4220   49.0788 dc         1 CLA      0.065600
     93 H202       83.6913   65.9585   47.4196 dc         1 CLA      0.065600
     94 H201       82.7334   64.8543   48.1930 dc         1 CLA      0.065600
     95 H193       86.2383   64.8494   46.5804 dc         1 CLA      0.065600
     96 H192       86.5222   64.4954   48.2432 dc         1 CLA      0.065600
     97 H191       86.5276   63.1957   47.1062 dc         1 CLA      0.065600
     98 H172       83.7480   64.3750   45.5785 dc         1 CLA      0.027600
     99 H171       82.6592   63.3056   46.5500 dc         1 CLA      0.027600
    100 H162       84.5676   61.3776   46.0485 dc         1 CLA      0.002900
    101 H161       85.2832   62.5634   45.0566 dc         1 CLA      0.002900
    102 H152       83.1850   62.5701   43.5517 dc         1 CLA      0.029100
    103 H151       82.5170   61.5170   44.7926 dc         1 CLA      0.029100
    104 H143       84.7709   59.2771   45.1377 dc         1 CLA      0.063600
    105 H142       83.1005   59.3922   45.0323 dc         1 CLA      0.063600
    106 H141       84.0548   58.2964   43.9160 dc         1 CLA      0.063600
    107 H122       82.8438   61.3659   41.7409 dc         1 CLA      0.032500
    108 H121       81.9241   60.0488   42.5755 dc         1 CLA      0.032500
    109 H112       82.4714   59.3815   40.5228 dc         1 CLA      0.006600
    110 H111       83.3073   58.3125   41.6039 dc         1 CLA      0.006600
    111 H102       85.4377   59.5217   40.9929 dc         1 CLA      0.024100
    112 H101       84.5377   60.8252   40.2157 dc         1 CLA      0.024100
    113 HHD        71.5998   57.1174   40.8773 da         1 CLA      0.174300
    114 HHC        75.4677   60.8850   44.2668 da         1 CLA      0.136800
    115 HHB        79.6784   61.2719   39.4496 da         1 CLA      0.138300
    116 HBD        75.4584   57.2969   35.1421 dc         1 CLA      0.107700
    117 HAB        78.6027   62.6709   44.6559 da         1 CLA      0.155200
    118 H93        85.8356   60.6235   38.2531 dc         1 CLA      0.069500
    119 H92        86.6742   59.1212   38.6458 dc         1 CLA      0.069500
    120 H91        85.5823   59.3886   37.2036 dc         1 CLA      0.069500
    121 H8         83.6006   59.1770   38.4953 dc         1 CLA      0.029300
    122 H72        83.6672   57.0448   39.7079 dc         1 CLA      0.044400
    123 H71        85.4626   57.2115   39.8615 dc         1 CLA      0.044400
    124 H62        84.8174   55.6465   38.1496 dc         1 CLA      0.015600
    125 H61        85.6355   56.9395   37.3806 dc         1 CLA      0.015600
    126 H52        83.7536   57.7426   36.2517 dc         1 CLA      0.033200
    127 H51        82.7908   57.2600   37.4695 dc         1 CLA      0.033200
    128 H43        84.4938   54.1041   36.4265 dc         1 CLA      0.037000
    129 H42        83.4170   53.8539   34.9563 dc         1 CLA      0.037000
    130 H41        84.8492   55.0549   35.1166 dc         1 CLA      0.037000
    131 H3A        79.4046   60.3690   37.0071 dc         1 CLA      0.041100
    132 H2A        78.6823   57.6431   36.5678 dc         1 CLA      0.083100
    133 H2         81.0221   55.0403   36.7069 da         1 CLA      0.180900
    134 H18        84.2957   63.0441   48.3290 dc         1 CLA     -0.003900
    135 H13        84.7881   60.8761   43.1303 dc         1 CLA      0.019700
    136 H12        80.1683   55.2257   34.5282 dc         1 CLA      0.120400
    137 H11        81.7670   55.7129   33.7874 dc         1 CLA      0.120400
    138 C1         66.7427   61.8895   51.1675 Z1         2 LUT      0.509236
    139 C2         66.7084   63.0715   52.1479 Z2         2 LUT     -0.434695
    140 C3         65.4048   63.7842   52.0765 Z3         2 LUT      0.437453
    141 O3         65.7482   65.1553   52.3588 S1         2 LUT     -0.547129
    142 C4         64.6531   63.7268   50.7180 Z4         2 LUT     -0.468603
    143 C5         65.4419   63.2646   49.5269 Z5         2 LUT      0.279246
    144 C6         66.3624   62.3039   49.6839 Z6         2 LUT     -0.305473
    145 C7         67.4386   61.9163   48.6859 Z7         2 LUT      0.069402
    146 C8         68.1956   62.6691   47.8103 Z8         2 LUT     -0.191631
    147 C9         69.0469   62.1990   46.6701 Z9         2 LUT      0.196698
    148 C10        69.9769   63.1085   46.1361 Y1         2 LUT     -0.208611
    149 C11        70.7245   62.8832   45.0107 Y2         2 LUT      0.030784
    150 C12        71.8329   63.5660   44.6736 Y3         2 LUT     -0.220316
    151 C13        72.7016   63.4079   43.5680 Y4         2 LUT      0.215937
    152 C14        73.8659   64.1905   43.4806 Y5         2 LUT     -0.185793
    153 C15        74.9373   64.2431   42.5385 Y6         2 LUT     -0.057835
    154 C16        65.6204   60.9266   51.7012 Y7         2 LUT     -0.405615
    155 C17        68.0629   61.0822   51.4172 Y7         2 LUT     -0.405615
    156 C18        65.3900   64.1679   48.3255 Y9         2 LUT     -0.369639
    157 C19        68.6495   60.7861   46.0254 W1         2 LUT     -0.333362
    158 C20        72.1205   62.8127   42.3498 W2         2 LUT     -0.323439
    159 C21        86.6512   66.3572   36.5670 Z1         2 LUT      0.406104
    160 C22        87.2973   65.9060   35.2569 Z2         2 LUT     -0.404965
    161 C23        87.3933   66.9347   34.1450 Z3         2 LUT      0.391255
    162 O23        88.2243   66.2993   33.1030 S1         2 LUT     -0.528210
    163 C24        86.0525   67.5554   33.9558 W6         2 LUT     -0.258361
    164 C25        85.0352   67.5313   34.8609 Z5         2 LUT      0.133546
    165 C26        85.1112   66.7042   36.1806 W8         2 LUT     -0.147008
    166 C27        84.2984   67.1694   37.4374 Z7         2 LUT      0.023843
    167 C28        82.9657   66.9985   37.6773 Z8         2 LUT     -0.216987
    168 C29        82.2581   67.3989   38.8785 Z9         2 LUT      0.206524
    169 C30        81.0406   66.7401   39.1626 Y1         2 LUT     -0.215556
    170 C31        80.1288   66.8098   40.2530 Y2         2 LUT      0.025142
    171 C32        79.1277   65.9477   40.3274 Y3         2 LUT     -0.212209
    172 C33        78.2202   65.9101   41.5292 Y4         2 LUT      0.240937
    173 C34        77.1343   65.1202   41.6355 Y5         2 LUT     -0.218862
    174 C35        75.9911   65.0475   42.5954 Y6         2 LUT     -0.023547
    175 C36        87.4138   67.5913   37.0804 Y7         2 LUT     -0.393485
    176 C37        87.0091   65.1623   37.5326 Y7         2 LUT     -0.393485
    177 C38        83.7311   68.2463   34.5460 Y9         2 LUT     -0.387526
    178 C39        82.8825   68.3560   39.8317 W1         2 LUT     -0.322618
    179 C40        78.3795   66.9668   42.5871 W2         2 LUT     -0.358472
    180 H403       78.2319   67.9975   42.2345 R7         2 LUT      0.097720
    181 H402       77.7396   66.9703   43.4798 R7         2 LUT      0.097720
    182 H401       79.3487   66.9014   43.1317 R7         2 LUT      0.097720
    183 H393       83.2235   69.2398   39.2470 R4         2 LUT      0.082505
    184 H392       82.1772   68.6801   40.6119 R4         2 LUT      0.082505
    185 H391       83.8064   67.8887   40.3375 R4         2 LUT      0.082505
    186 H383       83.2990   67.9167   33.6777 R1         2 LUT      0.104030
    187 H382       83.0173   68.2151   35.3948 R1         2 LUT      0.104030
    188 H381       84.0864   69.2681   34.4773 R1         2 LUT      0.104030
    189 H373       88.0601   65.1310   37.7977 T4         2 LUT      0.089537
    190 H372       86.5541   65.4494   38.5216 T4         2 LUT      0.089537
    191 H371       86.5921   64.1774   37.2005 T4         2 LUT      0.089537
    192 H363       88.4792   67.4679   36.8986 T4         2 LUT      0.089537
    193 H362       87.1891   68.4576   36.4816 T4         2 LUT      0.089537
    194 H361       87.2952   67.9074   38.1785 T4         2 LUT      0.089537
    195 H222       88.3456   65.6706   35.4082 U2         2 LUT      0.127376
    196 H221       86.7909   65.0964   34.7370 U2         2 LUT      0.127376
    197 H203       71.5119   61.9732   42.7331 R7         2 LUT      0.087068
    198 H202       71.4414   63.4365   41.8046 R7         2 LUT      0.087068
    199 H201       72.9059   62.4007   41.6985 R7         2 LUT      0.087068
    200 H193       67.6172   60.7425   46.0469 R4         2 LUT      0.089716
    201 H192       68.9003   60.6623   44.9207 R4         2 LUT      0.089716
    202 H191       69.0644   59.8978   46.5449 R4         2 LUT      0.089716
    203 H183       65.7236   63.5884   47.4585 R1         2 LUT      0.094572
    204 H182       64.4283   64.7872   48.2209 R1         2 LUT      0.094572
    205 H181       66.2290   64.9266   48.4513 R1         2 LUT      0.094572
    206 H173       68.8754   61.7228   51.1582 T4         2 LUT      0.093752
    207 H172       68.1543   60.7265   52.4164 T4         2 LUT      0.093752
    208 H171       68.2012   60.1526   50.8031 T4         2 LUT      0.093752
    209 H163       65.2365   61.0588   52.6981 T4         2 LUT      0.093752
    210 H162       64.7838   61.0428   51.0814 T4         2 LUT      0.093752
    211 H161       66.0168   59.8877   51.7181 T4         2 LUT      0.093752
    212 HO3        65.0452   65.7463   52.7318 Q1         2 LUT      0.300121
    213 H8         68.1710   63.7833   47.9263 U7         2 LUT      0.080784
    214 H7         67.5136   60.8473   48.5102 U6         2 LUT      0.042190
    215 H42        63.8635   62.8707   50.7897 U5         2 LUT      0.145166
    216 H41        64.0779   64.6211   50.5843 U5         2 LUT      0.145166
    217 H35        76.0713   65.6223   43.4969 T3         2 LUT      0.077919
    218 H34        76.9382   64.3896   40.8484 T2         2 LUT      0.073626
    219 H32        78.9049   65.2831   39.5083 T1         2 LUT      0.092510
    220 H31        80.4368   67.4431   41.0746 U9         2 LUT      0.070048
    221 H30        80.8174   65.9654   38.3891 U8         2 LUT      0.085442
    222 H3         64.7024   63.3970   52.7884 U3         2 LUT     -0.031596
    223 H28        82.5623   66.3092   37.0266 U7         2 LUT      0.084728
    224 H27        84.8754   67.9072   38.0596 U6         2 LUT      0.087291
    225 H26        84.8088   65.6873   36.0259 Q6         2 LUT      0.075325
    226 H24        86.0334   68.1796   33.0302 Q5         2 LUT      0.094482
    227 H23        88.0525   67.7495   34.5867 U3         2 LUT     -0.024869
    228 H22        66.8530   62.8197   53.1947 U2         2 LUT      0.127376
    229 H21        67.5503   63.6649   51.7149 U2         2 LUT      0.127376
    230 H15        75.1395   63.6638   41.6282 T3         2 LUT      0.093200
    231 H14        73.9992   64.8302   44.4027 T2         2 LUT      0.068865
    232 H12        72.2042   64.3855   45.3848 T1         2 LUT      0.095507
    233 H11        70.3817   62.0301   44.4037 U9         2 LUT      0.068930
    234 H10        70.1613   64.0060   46.6961 U8         2 LUT      0.083911
    235 H1         87.6181   65.8288   32.4638 Q1         2 LUT      0.297311
@<TRIPOS>BOND
    1     6     1 1
    2     7     2 1
    3     8     3 1
    4     9     4 1
    5    11     4 1
    6    12     6 1
    7    13     9 1
    8    16     9 1
    9    25     5 1
   10    25    16 1
   11    26    10 1
   12    26    17 1
   13    27    18 1
   14    28    14 1
   15    28    19 1
   16    29    12 1
   17    30    13 1
   18    31    24 1
   19    32     1 1
   20    32    25 1
   21    33    21 1
   22    33    26 1
   23    34    22 1
   24    34    27 1
   25    35    23 1
   26    35    28 1
   27    36    12 1
   28    36    24 1
   29    37    13 1
   30    37    15 1
   31    38    31 1
   32    39    20 1
   33    39    32 1
   34    40     2 1
   35    40    33 1
   36    41     3 1
   37    41    34 1
   38    42     4 1
   39    42    35 1
   40    43    38 1
   41    44     5 1
   42    44    17 1
   43    44    39 1
   44    45    10 1
   45    45    18 1
   46    45    40 1
   47    46    19 1
   48    46    41 1
   49    47    14 1
   50    47    16 1
   51    47    42 1
   52    48    38 1
   53    49    48 1
   54    50    49 1
   55    51    50 1
   56    52    51 1
   57    53    51 1
   58    54    53 1
   59    55    54 1
   60    56    55 1
   61    57    56 1
   62    58    56 1
   63    59    58 1
   64    60    59 1
   65    61    60 1
   66    62    61 1
   67    63    61 1
   68    64    27 1
   69    64    46 1
   70    65     5 1
   71    65    10 1
   72    65    64 1
   73    65    14 1
   74    66    23 1
   75    67    23 1
   76    68    23 1
   77    69    22 1
   78    70    22 1
   79    71    22 1
   80    72    21 1
   81    73    21 1
   82    74    21 1
   83    75    20 1
   84    76    20 1
   85    77    20 1
   86    78    15 1
   87    79    15 1
   88    80    15 1
   89    81     8 1
   90    82     8 1
   91    83     8 1
   92    84     7 1
   93    85     7 1
   94    86     6 1
   95    87     6 1
   96    88     3 1
   97    89     3 1
   98    90     1 1
   99    91     1 1
  100    92    63 1
  101    93    63 1
  102    94    63 1
  103    95    62 1
  104    96    62 1
  105    97    62 1
  106    98    60 1
  107    99    60 1
  108   100    59 1
  109   101    59 1
  110   102    58 1
  111   103    58 1
  112   104    57 1
  113   105    57 1
  114   106    57 1
  115   107    55 1
  116   108    55 1
  117   109    54 1
  118   110    54 1
  119   111    53 1
  120   112    53 1
  121   113    19 1
  122   114    18 1
  123   115    17 1
  124   116     9 1
  125   117     2 1
  126   118    52 1
  127   119    52 1
  128   120    52 1
  129   121    51 1
  130   122    50 1
  131   123    50 1
  132   124    49 1
  133   125    49 1
  134   126    48 1
  135   127    48 1
  136   128    43 1
  137   129    43 1
  138   130    43 1
  139   131    39 1
  140   132    32 1
  141   133    31 1
  142   134    61 1
  143   135    56 1
  144   136    24 1
  145   137    24 1
  146   139   138 1
  147   140   139 1
  148   141   140 1
  149   142   140 1
  150   143   142 1
  151   144   138 1
  152   144   143 1
  153   145   144 1
  154   146   145 1
  155   147   146 1
  156   148   147 1
  157   149   148 1
  158   150   149 1
  159   151   150 1
  160   152   151 1
  161   153   152 1
  162   154   138 1
  163   155   138 1
  164   156   143 1
  165   157   147 1
  166   158   151 1
  167   160   159 1
  168   161   160 1
  169   162   161 1
  170   163   161 1
  171   164   163 1
  172   165   159 1
  173   165   164 1
  174   166   165 1
  175   167   166 1
  176   168   167 1
  177   169   168 1
  178   170   169 1
  179   171   170 1
  180   172   171 1
  181   173   172 1
  182   174   153 1
  183   174   173 1
  184   175   159 1
  185   176   159 1
  186   177   164 1
  187   178   168 1
  188   179   172 1
  189   180   179 1
  190   181   179 1
  191   182   179 1
  192   183   178 1
  193   184   178 1
  194   185   178 1
  195   186   177 1
  196   187   177 1
  197   188   177 1
  198   189   176 1
  199   190   176 1
  200   191   176 1
  201   192   175 1
  202   193   175 1
  203   194   175 1
  204   195   160 1
  205   196   160 1
  206   197   158 1
  207   198   158 1
  208   199   158 1
  209   200   157 1
  210   201   157 1
  211   202   157 1
  212   203   156 1
  213   204   156 1
  214   205   156 1
  215   206   155 1
  216   207   155 1
  217   208   155 1
  218   209   154 1
  219   210   154 1
  220   211   154 1
  221   212   141 1
  222   213   146 1
  223   214   145 1
  224   215   142 1
  225   216   142 1
  226   217   174 1
  227   218   173 1
  228   219   171 1
  229   220   170 1
  230   221   169 1
  231   222   140 1
  232   223   167 1
  233   224   166 1
  234   225   165 1
  235   226   163 1
  236   227   161 1
  237   228   139 1
  238   229   139 1
  239   230   153 1
  240   231   152 1
  241   232   150 1
  242   233   149 1
  243   234   148 1
  244   235   162 1
  245   65    153 1
  246   65    174 1
@<TRIPOS>SUBSTRUCTURE
      1 CLA               1 ****               0 ****  **** 
      2 LUT             138 ****               0 ****  **** 
