@<TRIPOS>MOLECULE
Cpptraj generated mol2 file.
  235   246     2     0     0
SMALL
USER_CHARGES


@<TRIPOS>ATOM
      1 CAA        80.1891   58.5079   34.0374 a2         1 CLA     -0.055900
      2 CAB        80.1845   62.2641   43.3607 c8         1 CLA     -0.148500
      3 CAC        72.9492   58.6475   42.2277 a2         1 CLA     -0.012600
      4 CAD        76.0858   55.9744   35.5126 ck         1 CLA      0.398800
      5 NA         79.0673   59.1227   37.5549 ns         1 CLA     -0.225500
      6 CBA        81.4888   58.4797   33.2368 a2         1 CLA     -0.135000
      7 CBB        81.3348   62.2064   44.0021 c0         1 CLA     -0.395200
      8 CBC        73.0271   57.1949   42.5665 a3         1 CLA     -0.037700
      9 CBD        77.6033   56.3471   35.3142 a1         1 CLA     -0.053900
     10 NB         78.9254   60.6100   40.1375 nm         1 CLA     -0.295700
     11 OBD        75.4471   55.1263   34.8688 o2         1 CLA     -0.494600
     12 CGA        81.9211   57.0259   33.0195 c4         1 CLA      0.827000
     13 CGD        78.5620   55.1660   35.4560 c4         1 CLA      0.655300
     14 ND         76.1817   58.4123   37.9534 nm         1 CLA     -0.291600
     15 CED        78.6493   53.0547   36.6938 a3         1 CLA      0.005400
     16 CHA        77.8226   57.5252   36.3047 cs         1 CLA     -0.123800
     17 CHB        80.8109   60.6276   38.5419 aa         1 CLA     -0.291900
     18 CHC        77.6514   60.6828   42.2008 aa         1 CLA     -0.090400
     19 CHD        74.3354   58.2200   39.5787 aa         1 CLA     -0.052000
     20 CMA        82.4163   58.5438   37.0013 a3         1 CLA     -0.230700
     21 CMB        82.3400   62.2178   40.7213 a3         1 CLA     -0.180800
     22 CMC        75.2057   60.3039   44.1616 a3         1 CLA     -0.134000
     23 CMD        73.1574   56.3054   37.2336 a3         1 CLA     -0.141100
     24 C1         82.9586   55.1088   34.0724 a2         1 CLA      0.023000
     25 C1A        79.0133   58.2307   36.4544 ac         1 CLA     -0.015100
     26 C1B        80.2322   60.9344   39.7833 cr         1 CLA      0.054700
     27 C1C        76.3986   60.1772   41.8239 cn         1 CLA     -0.005600
     28 C1D        74.8995   57.9982   38.3168 ap         1 CLA     -0.047300
     29 O1A        81.6458   56.2955   32.0761 o2         1 CLA     -0.610800
     30 O1D        79.6164   54.9806   34.8217 o2         1 CLA     -0.558200
     31 C2         83.6586   54.8247   35.3858 c8         1 CLA     -0.325100
     32 C2A        80.3419   58.2147   35.6030 a1         1 CLA      0.098600
     33 C2B        80.9414   61.6168   40.9016 cb         1 CLA      0.088500
     34 C2C        75.3025   59.8710   42.7313 cb         1 CLA      0.053700
     35 C2D        74.4150   57.0448   37.3392 cb         1 CLA      0.058900
     36 O2A        82.7085   56.5988   34.0691 o1         1 CLA     -0.437200
     37 O2D        78.0108   54.3121   36.4443 o1         1 CLA     -0.357600
     38 C3         84.9625   54.7211   35.6773 c5         1 CLA      0.031200
     39 C3A        81.1686   59.2574   36.3979 a1         1 CLA      0.166800
     40 C3B        80.0347   61.6383   42.0152 cb         1 CLA      0.035000
     41 C3C        74.3538   59.2145   41.9017 cb         1 CLA     -0.089900
     42 C3D        75.5487   56.8052   36.5642 cb         1 CLA     -0.035900
     43 C4         85.8100   53.4494   35.4913 a3         1 CLA     -0.053300
     44 C4A        80.2540   59.7839   37.5453 ac         1 CLA      0.001800
     45 C4B        78.7961   60.9442   41.4909 cn         1 CLA     -0.020900
     46 C4C        74.8874   59.0372   40.5885 cr         1 CLA     -0.044400
     47 C4D        76.5959   57.6492   36.9549 c6         1 CLA     -0.046000
     48 C5         85.8557   55.9811   35.9844 a2         1 CLA     -0.070400
     49 C6         86.6879   55.9087   37.2758 a2         1 CLA      0.043900
     50 C7         87.4525   57.1837   37.5539 a2         1 CLA     -0.150000
     51 C8         88.6161   57.0064   38.6103 a1         1 CLA      0.064200
     52 C9         89.7215   55.9310   38.1944 a3         1 CLA     -0.259300
     53 C10        88.1702   56.7012   40.0449 a2         1 CLA     -0.071900
     54 C11        87.2216   57.7320   40.7422 a2         1 CLA      0.014500
     55 C12        87.0455   57.2830   42.2846 a2         1 CLA     -0.112100
     56 C13        88.0528   57.9399   43.2980 a1         1 CLA      0.089200
     57 C14        89.5403   57.7915   42.7986 a3         1 CLA     -0.239100
     58 C15        87.8067   57.2693   44.6376 a2         1 CLA     -0.102200
     59 C16        88.6196   57.7721   45.9356 a2         1 CLA      0.023900
     60 C17        88.1755   59.1887   46.3322 a2         1 CLA     -0.105700
     61 C18        86.7404   59.3558   46.9059 a1         1 CLA      0.206800
     62 C19        86.7362   59.2272   48.4597 a3         1 CLA     -0.280100
     63 C20        86.2721   60.6949   46.4752 a3         1 CLA     -0.280100
     64 NC         76.1260   59.6670   40.5436 nx         1 CLA     -0.309200
     65 MG         77.4952   59.5877   39.0133 mg         1 CLA      0.895000
     66 HMD3       73.1437   55.6092   36.3954 dc         1 CLA      0.064300
     67 HMD2       73.1768   55.6205   38.0891 dc         1 CLA      0.064300
     68 HMD1       72.2053   56.8925   37.2456 dc         1 CLA      0.064300
     69 HMC3       74.1269   60.5080   44.2555 dc         1 CLA      0.052100
     70 HMC2       75.3969   59.4069   44.7578 dc         1 CLA      0.052100
     71 HMC1       75.8145   61.1004   44.4551 dc         1 CLA      0.052100
     72 HMB3       82.7783   62.2974   41.7302 dc         1 CLA      0.063600
     73 HMB2       83.0979   61.6149   40.2308 dc         1 CLA      0.063600
     74 HMB1       82.2146   63.1909   40.2702 dc         1 CLA      0.063600
     75 HMA3       82.1878   57.8008   37.7048 dc         1 CLA      0.058300
     76 HMA2       82.9350   58.1381   36.1697 dc         1 CLA      0.058300
     77 HMA1       82.9890   59.3495   37.4628 dc         1 CLA      0.058300
     78 HED3       78.5361   52.3575   35.8798 dc         1 CLA      0.079300
     79 HED2       79.6986   53.1514   37.0694 dc         1 CLA      0.079300
     80 HED1       78.2431   52.5757   37.5656 dc         1 CLA      0.079300
     81 HBC3       73.7625   57.0914   43.3856 dc         1 CLA      0.016300
     82 HBC2       72.0727   56.9109   43.0017 dc         1 CLA      0.016300
     83 HBC1       73.1925   56.4288   41.7841 dc         1 CLA      0.016300
     84 HBB2       81.4388   62.6335   45.0280 da         1 CLA      0.183000
     85 HBB1       82.2646   61.7029   43.6884 da         1 CLA      0.183000
     86 HBA2       81.3563   59.0911   32.3209 dc         1 CLA      0.029400
     87 HBA1       82.1848   59.0238   33.7983 dc         1 CLA      0.029400
     88 HAC2       72.5753   59.1759   43.1013 dc         1 CLA      0.029300
     89 HAC1       72.2164   58.8845   41.4147 dc         1 CLA      0.029300
     90 HAA2       79.6049   57.6752   33.5466 dc         1 CLA      0.028700
     91 HAA1       79.7197   59.5012   33.8928 dc         1 CLA      0.028700
     92 H203       85.8754   60.6986   45.4936 dc         1 CLA      0.065600
     93 H202       85.4174   61.0152   47.0062 dc         1 CLA      0.065600
     94 H201       87.0098   61.4620   46.4264 dc         1 CLA      0.065600
     95 H193       86.7438   58.1562   48.7599 dc         1 CLA      0.065600
     96 H192       87.5992   59.6892   48.8865 dc         1 CLA      0.065600
     97 H191       85.8168   59.6189   48.8310 dc         1 CLA      0.065600
     98 H172       88.9701   59.5535   47.0096 dc         1 CLA      0.027600
     99 H171       88.4484   59.6797   45.4465 dc         1 CLA      0.027600
    100 H162       88.6180   57.1481   46.7997 dc         1 CLA      0.002900
    101 H161       89.7052   57.8682   45.7197 dc         1 CLA      0.002900
    102 H152       86.7607   57.3718   44.8447 dc         1 CLA      0.029100
    103 H151       87.9845   56.1595   44.5820 dc         1 CLA      0.029100
    104 H143       89.8623   56.7438   42.7771 dc         1 CLA      0.063600
    105 H142       89.7414   58.2060   41.8080 dc         1 CLA      0.063600
    106 H141       90.1141   58.4180   43.5469 dc         1 CLA      0.063600
    107 H122       86.0205   57.6168   42.6172 dc         1 CLA      0.032500
    108 H121       87.1767   56.2521   42.3400 dc         1 CLA      0.032500
    109 H112       87.7867   58.6669   40.7731 dc         1 CLA      0.006600
    110 H111       86.2474   57.9056   40.2064 dc         1 CLA      0.006600
    111 H102       87.5434   55.8217   40.1280 dc         1 CLA      0.024100
    112 H101       89.0310   56.4369   40.6116 dc         1 CLA      0.024100
    113 HHD        73.3590   57.6821   39.6595 da         1 CLA      0.174300
    114 HHC        77.7656   60.8206   43.2654 da         1 CLA      0.136800
    115 HHB        81.8594   60.9849   38.3772 da         1 CLA      0.138300
    116 HBD        77.7320   56.6911   34.2849 dc         1 CLA      0.107700
    117 HAB        79.3149   62.7025   43.7782 da         1 CLA      0.155200
    118 H93        90.6191   56.0926   38.7469 dc         1 CLA      0.069500
    119 H92        89.4267   54.8924   38.3360 dc         1 CLA      0.069500
    120 H91        89.9038   56.1575   37.0972 dc         1 CLA      0.069500
    121 H8         89.2010   57.9266   38.5266 dc         1 CLA      0.029300
    122 H72        87.9154   57.4231   36.6361 dc         1 CLA      0.044400
    123 H71        86.7762   57.9790   37.8305 dc         1 CLA      0.044400
    124 H62        85.9870   55.8280   38.1418 dc         1 CLA      0.015600
    125 H61        87.3273   55.0189   37.2685 dc         1 CLA      0.015600
    126 H52        86.5817   56.0351   35.1726 dc         1 CLA      0.033200
    127 H51        85.1908   56.8398   36.1294 dc         1 CLA      0.033200
    128 H43        86.5199   53.5171   34.6764 dc         1 CLA      0.037000
    129 H42        86.2425   53.1511   36.3859 dc         1 CLA      0.037000
    130 H41        85.1563   52.6407   35.0154 dc         1 CLA      0.037000
    131 H3A        81.4703   60.1073   35.7275 dc         1 CLA      0.041100
    132 H2A        80.7445   57.2408   35.6898 dc         1 CLA      0.083100
    133 H2         82.9930   54.6329   36.2012 da         1 CLA      0.180900
    134 H18        86.0314   58.6998   46.4667 dc         1 CLA     -0.003900
    135 H13        87.7709   58.9983   43.3640 dc         1 CLA      0.019700
    136 H12        82.0034   54.5405   34.1037 dc         1 CLA      0.120400
    137 H11        83.6201   54.8840   33.2389 dc         1 CLA      0.120400
    138 C1         70.0536   62.2148   49.6678 Z1         2 LUT      0.509236
    139 C2         68.7611   62.0320   50.5557 Z2         2 LUT     -0.434695
    140 C3         67.9306   63.3257   50.8842 Z3         2 LUT      0.437453
    141 O3         68.2256   63.7912   52.2178 S1         2 LUT     -0.547129
    142 C4         68.2539   64.4722   49.9332 Z4         2 LUT     -0.468603
    143 C5         69.0466   64.1960   48.6188 Z5         2 LUT      0.279246
    144 C6         69.9702   63.2217   48.5583 Z6         2 LUT     -0.305473
    145 C7         70.2435   62.6759   47.2008 Z7         2 LUT      0.069402
    146 C8         71.4130   63.0113   46.6235 Z8         2 LUT     -0.191631
    147 C9         72.0130   62.6577   45.3025 Z9         2 LUT      0.196698
    148 C10        73.0831   63.3058   44.7952 Y1         2 LUT     -0.208611
    149 C11        73.7669   63.1777   43.5340 Y2         2 LUT      0.030784
    150 C12        74.8930   63.8519   43.2025 Y3         2 LUT     -0.220316
    151 C13        75.8056   63.8124   42.1362 Y4         2 LUT      0.215937
    152 C14        77.0573   64.4693   42.2459 Y5         2 LUT     -0.185793
    153 C15        78.0629   64.5572   41.2283 Y6         2 LUT     -0.057835
    154 C16        70.5366   60.7915   49.4189 Y7         2 LUT     -0.405615
    155 C17        70.9806   62.8106   50.7385 Y7         2 LUT     -0.405615
    156 C18        68.2971   64.7031   47.4268 Y9         2 LUT     -0.369639
    157 C19        71.2272   61.6326   44.4810 W1         2 LUT     -0.333362
    158 C20        75.4674   63.1023   40.8372 W2         2 LUT     -0.323439
    159 C21        88.8429   65.5226   34.4372 Z1         2 LUT      0.406104
    160 C22        89.7439   65.0046   33.3644 Z2         2 LUT     -0.404965
    161 C23        90.1036   66.0410   32.2781 Z3         2 LUT      0.391255
    162 O23        90.8011   65.2110   31.3821 S1         2 LUT     -0.528210
    163 C24        88.7932   66.7954   31.8502 W6         2 LUT     -0.258361
    164 C25        87.6448   66.8421   32.5509 Z5         2 LUT      0.133546
    165 C26        87.4681   66.0374   33.8837 W8         2 LUT     -0.147008
    166 C27        86.6952   66.7950   34.9081 Z7         2 LUT      0.023843
    167 C28        85.5882   66.4078   35.5812 Z8         2 LUT     -0.216987
    168 C29        85.0414   67.0192   36.8329 Z9         2 LUT      0.206524
    169 C30        84.0794   66.3361   37.4954 Y1         2 LUT     -0.215556
    170 C31        83.5154   66.5467   38.7813 Y2         2 LUT      0.025142
    171 C32        82.3667   65.9582   39.1634 Y3         2 LUT     -0.212209
    172 C33        81.5011   66.1102   40.3283 Y4         2 LUT      0.240937
    173 C34        80.2909   65.4170   40.4514 Y5         2 LUT     -0.218862
    174 C35        79.1735   65.3653   41.3390 Y6         2 LUT     -0.023547
    175 C36        89.7157   66.6267   35.0634 Y7         2 LUT     -0.393485
    176 C37        88.7863   64.4576   35.5254 Y7         2 LUT     -0.393485
    177 C38        86.3594   67.5145   32.0749 Y9         2 LUT     -0.387526
    178 C39        85.6446   68.2526   37.3098 W1         2 LUT     -0.322618
    179 C40        82.0147   66.9098   41.5462 W2         2 LUT     -0.358472
    180 H403       82.1644   67.9438   41.2478 R7         2 LUT      0.097720
    181 H402       81.3768   66.9224   42.3693 R7         2 LUT      0.097720
    182 H401       83.0619   66.6765   41.9048 R7         2 LUT      0.097720
    183 H393       85.8958   68.8987   36.4549 R4         2 LUT      0.082505
    184 H392       84.8995   68.8213   37.8214 R4         2 LUT      0.082505
    185 H391       86.5245   68.0291   37.9310 R4         2 LUT      0.082505
    186 H383       86.5174   67.9004   31.0574 R1         2 LUT      0.104030
    187 H382       85.6276   66.5920   32.0691 R1         2 LUT      0.104030
    188 H381       85.9072   68.1874   32.7669 R1         2 LUT      0.104030
    189 H373       89.8147   64.2056   35.9265 T4         2 LUT      0.089537
    190 H372       88.1253   64.7634   36.3597 T4         2 LUT      0.089537
    191 H371       88.3551   63.5545   35.0956 T4         2 LUT      0.089537
    192 H363       89.4310   66.7059   36.1161 T4         2 LUT      0.089537
    193 H362       90.8412   66.4622   35.0388 T4         2 LUT      0.089537
    194 H361       89.6203   67.6196   34.6614 T4         2 LUT      0.089537
    195 H222       90.7044   64.7123   33.7752 U2         2 LUT      0.127376
    196 H221       89.3159   64.0766   32.9384 U2         2 LUT      0.127376
    197 H203       75.2865   63.8925   40.0890 R7         2 LUT      0.087068
    198 H202       76.3278   62.5028   40.5396 R7         2 LUT      0.087068
    199 H201       74.6624   62.3424   41.0064 R7         2 LUT      0.087068
    200 H193       70.1244   61.7567   44.4888 R4         2 LUT      0.089716
    201 H192       71.4099   61.6294   43.4066 R4         2 LUT      0.089716
    202 H191       71.4216   60.5862   44.7295 R4         2 LUT      0.089716
    203 H183       68.9020   65.5145   46.9088 R1         2 LUT      0.094572
    204 H182       68.0037   63.9574   46.6318 R1         2 LUT      0.094572
    205 H181       67.4226   65.2661   47.6249 R1         2 LUT      0.094572
    206 H173       70.9036   62.3657   51.7293 T4         2 LUT      0.093752
    207 H172       72.0600   62.9157   50.4042 T4         2 LUT      0.093752
    208 H171       70.7948   63.8540   50.8952 T4         2 LUT      0.093752
    209 H163       71.3556   60.8673   48.7257 T4         2 LUT      0.093752
    210 H162       70.7343   60.2305   50.2840 T4         2 LUT      0.093752
    211 H161       69.6819   60.2168   48.9251 T4         2 LUT      0.093752
    212 HO3        67.8187   63.1430   52.8689 Q1         2 LUT      0.300121
    213 H8         72.0725   63.6918   47.1464 U7         2 LUT      0.080784
    214 H7         69.4826   61.9649   46.7173 U6         2 LUT      0.042190
    215 H42        67.2626   64.8639   49.6526 U5         2 LUT      0.145166
    216 H41        68.8888   65.1767   50.3751 U5         2 LUT      0.145166
    217 H35        79.3263   65.9518   42.2053 T3         2 LUT      0.077919
    218 H34        80.1106   64.8322   39.5865 T2         2 LUT      0.073626
    219 H32        81.9989   65.3804   38.3172 T1         2 LUT      0.092510
    220 H31        83.9957   67.3994   39.3079 U9         2 LUT      0.070048
    221 H30        83.7669   65.4252   36.9479 U8         2 LUT      0.085442
    222 H3         66.8957   63.1883   50.9038 U3         2 LUT     -0.031596
    223 H28        85.0980   65.5411   35.1414 U7         2 LUT      0.084728
    224 H27        87.2460   67.6629   35.2012 U6         2 LUT      0.087291
    225 H26        86.8271   65.1723   33.4964 Q6         2 LUT      0.075325
    226 H24        88.9334   67.4589   30.9704 Q5         2 LUT      0.094482
    227 H23        90.7702   66.8020   32.7409 U3         2 LUT     -0.024869
    228 H22        68.1106   61.4534   49.8861 U2         2 LUT      0.127376
    229 H21        69.0149   61.5210   51.4918 U2         2 LUT      0.127376
    230 H15        78.0330   63.9584   40.3577 T3         2 LUT      0.093200
    231 H14        77.3400   64.9624   43.1776 T2         2 LUT      0.068865
    232 H12        75.3196   64.4739   43.9781 T1         2 LUT      0.095507
    233 H11        73.4462   62.4684   42.7325 U9         2 LUT      0.068930
    234 H10        73.6149   64.1685   45.3297 U8         2 LUT      0.083911
    235 H1         90.2555   64.9215   30.6250 Q1         2 LUT      0.297311
@<TRIPOS>BOND
    1     6     1 1
    2     7     2 1
    3     8     3 1
    4     9     4 1
    5    11     4 1
    6    12     6 1
    7    13     9 1
    8    16     9 1
    9    25     5 1
   10    25    16 1
   11    26    10 1
   12    26    17 1
   13    27    18 1
   14    28    14 1
   15    28    19 1
   16    29    12 1
   17    30    13 1
   18    31    24 1
   19    32     1 1
   20    32    25 1
   21    33    21 1
   22    33    26 1
   23    34    22 1
   24    34    27 1
   25    35    23 1
   26    35    28 1
   27    36    12 1
   28    36    24 1
   29    37    13 1
   30    37    15 1
   31    38    31 1
   32    39    20 1
   33    39    32 1
   34    40     2 1
   35    40    33 1
   36    41     3 1
   37    41    34 1
   38    42     4 1
   39    42    35 1
   40    43    38 1
   41    44     5 1
   42    44    17 1
   43    44    39 1
   44    45    10 1
   45    45    18 1
   46    45    40 1
   47    46    19 1
   48    46    41 1
   49    47    14 1
   50    47    16 1
   51    47    42 1
   52    48    38 1
   53    49    48 1
   54    50    49 1
   55    51    50 1
   56    52    51 1
   57    53    51 1
   58    54    53 1
   59    55    54 1
   60    56    55 1
   61    57    56 1
   62    58    56 1
   63    59    58 1
   64    60    59 1
   65    61    60 1
   66    62    61 1
   67    63    61 1
   68    64    27 1
   69    64    46 1
   70    65     5 1
   71    65    10 1
   72    65    64 1
   73    65    14 1
   74    66    23 1
   75    67    23 1
   76    68    23 1
   77    69    22 1
   78    70    22 1
   79    71    22 1
   80    72    21 1
   81    73    21 1
   82    74    21 1
   83    75    20 1
   84    76    20 1
   85    77    20 1
   86    78    15 1
   87    79    15 1
   88    80    15 1
   89    81     8 1
   90    82     8 1
   91    83     8 1
   92    84     7 1
   93    85     7 1
   94    86     6 1
   95    87     6 1
   96    88     3 1
   97    89     3 1
   98    90     1 1
   99    91     1 1
  100    92    63 1
  101    93    63 1
  102    94    63 1
  103    95    62 1
  104    96    62 1
  105    97    62 1
  106    98    60 1
  107    99    60 1
  108   100    59 1
  109   101    59 1
  110   102    58 1
  111   103    58 1
  112   104    57 1
  113   105    57 1
  114   106    57 1
  115   107    55 1
  116   108    55 1
  117   109    54 1
  118   110    54 1
  119   111    53 1
  120   112    53 1
  121   113    19 1
  122   114    18 1
  123   115    17 1
  124   116     9 1
  125   117     2 1
  126   118    52 1
  127   119    52 1
  128   120    52 1
  129   121    51 1
  130   122    50 1
  131   123    50 1
  132   124    49 1
  133   125    49 1
  134   126    48 1
  135   127    48 1
  136   128    43 1
  137   129    43 1
  138   130    43 1
  139   131    39 1
  140   132    32 1
  141   133    31 1
  142   134    61 1
  143   135    56 1
  144   136    24 1
  145   137    24 1
  146   139   138 1
  147   140   139 1
  148   141   140 1
  149   142   140 1
  150   143   142 1
  151   144   138 1
  152   144   143 1
  153   145   144 1
  154   146   145 1
  155   147   146 1
  156   148   147 1
  157   149   148 1
  158   150   149 1
  159   151   150 1
  160   152   151 1
  161   153   152 1
  162   154   138 1
  163   155   138 1
  164   156   143 1
  165   157   147 1
  166   158   151 1
  167   160   159 1
  168   161   160 1
  169   162   161 1
  170   163   161 1
  171   164   163 1
  172   165   159 1
  173   165   164 1
  174   166   165 1
  175   167   166 1
  176   168   167 1
  177   169   168 1
  178   170   169 1
  179   171   170 1
  180   172   171 1
  181   173   172 1
  182   174   153 1
  183   174   173 1
  184   175   159 1
  185   176   159 1
  186   177   164 1
  187   178   168 1
  188   179   172 1
  189   180   179 1
  190   181   179 1
  191   182   179 1
  192   183   178 1
  193   184   178 1
  194   185   178 1
  195   186   177 1
  196   187   177 1
  197   188   177 1
  198   189   176 1
  199   190   176 1
  200   191   176 1
  201   192   175 1
  202   193   175 1
  203   194   175 1
  204   195   160 1
  205   196   160 1
  206   197   158 1
  207   198   158 1
  208   199   158 1
  209   200   157 1
  210   201   157 1
  211   202   157 1
  212   203   156 1
  213   204   156 1
  214   205   156 1
  215   206   155 1
  216   207   155 1
  217   208   155 1
  218   209   154 1
  219   210   154 1
  220   211   154 1
  221   212   141 1
  222   213   146 1
  223   214   145 1
  224   215   142 1
  225   216   142 1
  226   217   174 1
  227   218   173 1
  228   219   171 1
  229   220   170 1
  230   221   169 1
  231   222   140 1
  232   223   167 1
  233   224   166 1
  234   225   165 1
  235   226   163 1
  236   227   161 1
  237   228   139 1
  238   229   139 1
  239   230   153 1
  240   231   152 1
  241   232   150 1
  242   233   149 1
  243   234   148 1
  244   235   162 1
  245   65    153 1
  246   65    174 1
@<TRIPOS>SUBSTRUCTURE
      1 CLA               1 ****               0 ****  **** 
      2 LUT             138 ****               0 ****  **** 
