@<TRIPOS>MOLECULE
Cpptraj generated mol2 file.
  235   246     2     0     0
SMALL
USER_CHARGES


@<TRIPOS>ATOM
      1 CAA        79.1654   59.2149   34.3703 a2         1 CLA     -0.055900
      2 CAB        79.1163   61.8474   43.9155 c8         1 CLA     -0.148500
      3 CAC        71.9250   58.6381   42.6405 a2         1 CLA     -0.012600
      4 CAD        74.5824   57.1911   35.0328 ck         1 CLA      0.398800
      5 NA         77.9682   59.3450   37.7464 ns         1 CLA     -0.225500
      6 CBA        80.4528   59.1210   33.4720 a2         1 CLA     -0.135000
      7 CBB        80.2721   61.5369   44.5444 c0         1 CLA     -0.395200
      8 CBC        71.8684   57.1353   42.3607 a3         1 CLA     -0.037700
      9 CBD        76.1262   57.4967   34.8243 a1         1 CLA     -0.053900
     10 NB         77.8719   60.7111   40.5441 nm         1 CLA     -0.295700
     11 OBD        73.9260   56.6803   34.0748 o2         1 CLA     -0.494600
     12 CGA        80.9109   57.7252   32.9614 c4         1 CLA      0.827000
     13 CGD        76.9056   56.2696   34.4730 c4         1 CLA      0.655300
     14 ND         75.0416   58.6961   38.1759 nm         1 CLA     -0.291600
     15 CED        77.0792   53.9169   34.8571 a3         1 CLA      0.005400
     16 CHA        76.5415   58.1616   36.1674 cs         1 CLA     -0.123800
     17 CHB        79.7710   60.4745   39.0186 aa         1 CLA     -0.291900
     18 CHC        76.5016   60.7256   42.5888 aa         1 CLA     -0.090400
     19 CHD        73.1441   58.4581   39.7066 aa         1 CLA     -0.052000
     20 CMA        81.3646   58.3373   37.3411 a3         1 CLA     -0.230700
     21 CMB        81.2242   62.1564   41.2860 a3         1 CLA     -0.180800
     22 CMC        73.9506   60.2700   44.4573 a3         1 CLA     -0.134000
     23 CMD        71.7604   56.7849   37.2553 a3         1 CLA     -0.141100
     24 C1         81.2441   55.5194   33.7492 a2         1 CLA      0.023000
     25 C1A        77.8020   58.6739   36.5645 ac         1 CLA     -0.015100
     26 C1B        79.1790   60.8913   40.2197 cr         1 CLA      0.054700
     27 C1C        75.2709   60.1653   42.1079 cn         1 CLA     -0.005600
     28 C1D        73.7448   58.1963   38.4703 ap         1 CLA     -0.047300
     29 O1A        80.8983   57.3334   31.7988 o2         1 CLA     -0.610800
     30 O1D        77.9033   56.2331   33.7703 o2         1 CLA     -0.558200
     31 C2         82.1358   55.0582   34.9255 c8         1 CLA     -0.325100
     32 C2A        79.1764   58.6196   35.8431 a1         1 CLA      0.098600
     33 C2B        79.8535   61.5531   41.3674 cb         1 CLA      0.088500
     34 C2C        74.1447   59.8154   42.9990 cb         1 CLA      0.053700
     35 C2D        73.2034   57.4712   37.3041 cb         1 CLA      0.058900
     36 O2A        81.1991   56.8972   34.0343 o1         1 CLA     -0.437200
     37 O2D        76.5157   55.2403   35.1709 o1         1 CLA     -0.357600
     38 C3         83.3443   54.3232   34.8458 c5         1 CLA      0.031200
     39 C3A        80.1939   59.2813   36.7795 a1         1 CLA      0.166800
     40 C3B        78.9300   61.4932   42.4787 cb         1 CLA      0.035000
     41 C3C        73.2336   59.2118   42.1957 cb         1 CLA     -0.089900
     42 C3D        74.2401   57.5515   36.4081 cb         1 CLA     -0.035900
     43 C4         83.5024   52.8291   35.0878 a3         1 CLA     -0.053300
     44 C4A        79.3097   59.7592   37.9538 ac         1 CLA      0.001800
     45 C4B        77.6965   60.9471   41.8747 cn         1 CLA     -0.020900
     46 C4C        73.8082   59.0741   40.8348 cr         1 CLA     -0.044400
     47 C4D        75.3340   58.2103   36.9497 c6         1 CLA     -0.046000
     48 C5         84.6896   55.0050   34.7531 a2         1 CLA     -0.070400
     49 C6         85.2424   56.0678   35.6727 a2         1 CLA      0.043900
     50 C7         84.9654   55.5992   37.1799 a2         1 CLA     -0.150000
     51 C8         85.8035   56.3345   38.1088 a1         1 CLA      0.064200
     52 C9         87.3166   56.1114   38.0215 a3         1 CLA     -0.259300
     53 C10        85.4110   56.0802   39.5561 a2         1 CLA     -0.071900
     54 C11        84.0129   56.6273   39.9431 a2         1 CLA      0.014500
     55 C12        83.7297   56.5495   41.4448 a2         1 CLA     -0.112100
     56 C13        82.2849   56.9536   41.7460 a1         1 CLA      0.089200
     57 C14        82.0391   58.4030   41.4409 a3         1 CLA     -0.239100
     58 C15        81.9888   56.5737   43.2012 a2         1 CLA     -0.102200
     59 C16        82.6068   57.3757   44.4024 a2         1 CLA      0.023900
     60 C17        82.2504   56.6645   45.7422 a2         1 CLA     -0.105700
     61 C18        82.7473   57.3229   47.1218 a1         1 CLA      0.206800
     62 C19        82.1722   56.4497   48.2102 a3         1 CLA     -0.280100
     63 C20        84.2985   57.4530   47.1649 a3         1 CLA     -0.280100
     64 NC         75.0053   59.7848   40.8371 nx         1 CLA     -0.309200
     65 MG         76.4697   59.7736   39.2777 mg         1 CLA      0.895000
     66 HMD3       71.6979   56.0190   36.5336 dc         1 CLA      0.064300
     67 HMD2       71.5483   56.3239   38.2093 dc         1 CLA      0.064300
     68 HMD1       71.0404   57.5622   37.0535 dc         1 CLA      0.064300
     69 HMC3       72.9531   60.0402   44.8724 dc         1 CLA      0.052100
     70 HMC2       74.5745   59.6207   44.9309 dc         1 CLA      0.052100
     71 HMC1       74.2941   61.2872   44.5396 dc         1 CLA      0.052100
     72 HMB3       81.4317   62.5487   40.3320 dc         1 CLA      0.063600
     73 HMB2       81.4056   62.7784   42.1661 dc         1 CLA      0.063600
     74 HMB1       81.9112   61.2696   41.2897 dc         1 CLA      0.063600
     75 HMA3       82.0356   58.9293   37.8765 dc         1 CLA      0.058300
     76 HMA2       80.9124   57.5847   38.0265 dc         1 CLA      0.058300
     77 HMA1       82.0022   57.8277   36.6122 dc         1 CLA      0.058300
     78 HED3       78.1327   53.8126   34.8838 dc         1 CLA      0.079300
     79 HED2       76.6220   53.0502   35.3625 dc         1 CLA      0.079300
     80 HED1       76.7145   53.7355   33.8914 dc         1 CLA      0.079300
     81 HBC3       72.7757   56.7032   42.8179 dc         1 CLA      0.016300
     82 HBC2       71.0373   56.7674   42.8714 dc         1 CLA      0.016300
     83 HBC1       71.8521   56.9478   41.2967 dc         1 CLA      0.016300
     84 HBB2       80.5035   61.5900   45.6522 da         1 CLA      0.183000
     85 HBB1       81.1331   61.1589   43.9875 da         1 CLA      0.183000
     86 HBA2       80.1671   59.7558   32.6535 dc         1 CLA      0.029400
     87 HBA1       81.2877   59.6300   33.9232 dc         1 CLA      0.029400
     88 HAC2       71.7624   58.8328   43.7297 dc         1 CLA      0.029300
     89 HAC1       71.1254   59.2381   42.2001 dc         1 CLA      0.029300
     90 HAA2       78.2781   58.8899   33.8076 dc         1 CLA      0.028700
     91 HAA1       79.1063   60.2967   34.5026 dc         1 CLA      0.028700
     92 H203       84.5953   58.1954   46.3955 dc         1 CLA      0.065600
     93 H202       84.7082   57.7847   48.1039 dc         1 CLA      0.065600
     94 H201       84.7998   56.5989   46.7670 dc         1 CLA      0.065600
     95 H193       82.4349   56.9891   49.1706 dc         1 CLA      0.065600
     96 H192       81.0887   56.3981   48.0657 dc         1 CLA      0.065600
     97 H191       82.6888   55.4571   48.2956 dc         1 CLA      0.065600
     98 H172       81.1580   56.5800   45.7696 dc         1 CLA      0.027600
     99 H171       82.5758   55.6122   45.6962 dc         1 CLA      0.027600
    100 H162       83.6757   57.4345   44.2892 dc         1 CLA      0.002900
    101 H161       82.1927   58.3665   44.5460 dc         1 CLA      0.002900
    102 H152       80.9754   56.4747   43.4592 dc         1 CLA      0.029100
    103 H151       82.3335   55.5739   43.4077 dc         1 CLA      0.029100
    104 H143       81.1892   58.7575   41.9712 dc         1 CLA      0.063600
    105 H142       82.9364   59.0115   41.7071 dc         1 CLA      0.063600
    106 H141       81.9045   58.5370   40.3346 dc         1 CLA      0.063600
    107 H122       83.8392   55.4830   41.6745 dc         1 CLA      0.032500
    108 H121       84.4498   57.2117   41.9887 dc         1 CLA      0.032500
    109 H112       83.8395   57.5031   39.3821 dc         1 CLA      0.006600
    110 H111       83.2404   55.9793   39.5358 dc         1 CLA      0.006600
    111 H102       85.4041   55.0370   39.7219 dc         1 CLA      0.024100
    112 H101       86.0534   56.6125   40.2574 dc         1 CLA      0.024100
    113 HHD        72.1575   58.1410   39.7415 da         1 CLA      0.174300
    114 HHC        76.5826   60.8119   43.6593 da         1 CLA      0.136800
    115 HHB        80.8765   60.7171   38.9763 da         1 CLA      0.138300
    116 HBD        76.1508   58.2762   34.0942 dc         1 CLA      0.107700
    117 HAB        78.2488   62.2564   44.5188 da         1 CLA      0.155200
    118 H93        87.5695   55.0831   38.1194 dc         1 CLA      0.069500
    119 H92        87.8413   56.3832   37.0679 dc         1 CLA      0.069500
    120 H91        87.7905   56.8194   38.7491 dc         1 CLA      0.069500
    121 H8         85.4843   57.3596   37.9623 dc         1 CLA      0.029300
    122 H72        83.9500   55.7776   37.4615 dc         1 CLA      0.044400
    123 H71        85.2198   54.5032   37.2089 dc         1 CLA      0.044400
    124 H62        86.2832   56.1454   35.3509 dc         1 CLA      0.015600
    125 H61        84.7936   56.9436   35.2724 dc         1 CLA      0.015600
    126 H52        85.5348   54.2724   34.6807 dc         1 CLA      0.033200
    127 H51        84.6690   55.4578   33.7223 dc         1 CLA      0.033200
    128 H43        82.5515   52.3709   35.4688 dc         1 CLA      0.037000
    129 H42        83.8290   52.3183   34.2151 dc         1 CLA      0.037000
    130 H41        84.2897   52.5987   35.7844 dc         1 CLA      0.037000
    131 H3A        80.6892   60.1517   36.3118 dc         1 CLA      0.041100
    132 H2A        79.3681   57.5298   35.7859 dc         1 CLA      0.083100
    133 H2         81.8423   55.2977   35.9171 da         1 CLA      0.180900
    134 H18        82.1723   58.2491   47.2113 dc         1 CLA     -0.003900
    135 H13        81.5707   56.4696   41.0043 dc         1 CLA      0.019700
    136 H12        80.1872   55.2876   33.8228 dc         1 CLA      0.120400
    137 H11        81.6000   55.1623   32.8120 dc         1 CLA      0.120400
    138 C1         68.5339   61.6388   50.1401 Z1         2 LUT      0.509236
    139 C2         67.3352   61.4944   51.0281 Z2         2 LUT     -0.434695
    140 C3         66.5492   62.7656   51.3623 Z3         2 LUT      0.437453
    141 O3         66.8304   63.2066   52.6961 S1         2 LUT     -0.547129
    142 C4         66.7190   63.8265   50.2879 Z4         2 LUT     -0.468603
    143 C5         67.3017   63.5070   48.9537 Z5         2 LUT      0.279246
    144 C6         68.0992   62.4687   48.8799 Z6         2 LUT     -0.305473
    145 C7         68.5707   61.9680   47.5949 Z7         2 LUT      0.069402
    146 C8         69.4174   62.6814   46.7814 Z8         2 LUT     -0.191631
    147 C9         69.9233   62.2430   45.4992 Z9         2 LUT      0.196698
    148 C10        71.0335   62.8319   45.0264 Y1         2 LUT     -0.208611
    149 C11        71.7637   62.7467   43.7316 Y2         2 LUT      0.030784
    150 C12        72.8182   63.5766   43.4939 Y3         2 LUT     -0.220316
    151 C13        73.7769   63.5786   42.3713 Y4         2 LUT      0.215937
    152 C14        74.8801   64.3794   42.4780 Y5         2 LUT     -0.185793
    153 C15        76.1255   64.2319   41.7231 Y6         2 LUT     -0.057835
    154 C16        69.1111   60.1547   49.8485 Y7         2 LUT     -0.405615
    155 C17        69.6629   62.3713   50.9415 Y7         2 LUT     -0.405615
    156 C18        66.8525   64.4433   47.8805 Y9         2 LUT     -0.369639
    157 C19        69.0567   61.3565   44.6425 W1         2 LUT     -0.333362
    158 C20        73.2972   62.9509   41.0913 W2         2 LUT     -0.323439
    159 C21        87.4138   66.0673   35.0848 Z1         2 LUT      0.406104
    160 C22        87.7424   65.6511   33.6064 Z2         2 LUT     -0.404965
    161 C23        87.6279   66.6544   32.5042 Z3         2 LUT      0.391255
    162 O23        87.8626   65.8543   31.3934 S1         2 LUT     -0.528210
    163 C24        86.2697   67.2554   32.6544 W6         2 LUT     -0.258361
    164 C25        85.4672   67.2256   33.6783 Z5         2 LUT      0.133546
    165 C26        85.8668   66.4724   34.9543 W8         2 LUT     -0.147008
    166 C27        85.1452   66.8836   36.1972 Z7         2 LUT      0.023843
    167 C28        83.9979   66.3821   36.6619 Z8         2 LUT     -0.216987
    168 C29        83.3036   66.8010   37.8395 Z9         2 LUT      0.206524
    169 C30        82.2636   66.0028   38.2404 Y1         2 LUT     -0.215556
    170 C31        81.5359   66.1142   39.4730 Y2         2 LUT      0.025142
    171 C32        80.4768   65.3731   39.8154 Y3         2 LUT     -0.212209
    172 C33        79.6313   65.3898   40.9811 Y4         2 LUT      0.240937
    173 C34        78.4190   64.7348   40.9299 Y5         2 LUT     -0.218862
    174 C35        77.3362   64.8565   41.9406 Y6         2 LUT     -0.023547
    175 C36        88.2999   67.2660   35.4377 Y7         2 LUT     -0.393485
    176 C37        87.6510   64.7511   35.9417 Y7         2 LUT     -0.393485
    177 C38        84.0666   67.8556   33.6450 Y9         2 LUT     -0.387526
    178 C39        83.7411   68.0265   38.5802 W1         2 LUT     -0.322618
    179 C40        80.1932   65.7553   42.3457 W2         2 LUT     -0.358472
    180 H403       81.2853   66.0307   42.3052 R7         2 LUT      0.097720
    181 H402       79.7376   66.5922   42.8787 R7         2 LUT      0.097720
    182 H401       80.0369   64.9650   43.0853 R7         2 LUT      0.097720
    183 H393       83.2813   68.2105   39.5573 R4         2 LUT      0.082505
    184 H392       84.8229   68.0446   38.7680 R4         2 LUT      0.082505
    185 H391       83.4847   68.8905   37.9464 R4         2 LUT      0.082505
    186 H383       83.6900   68.1953   32.6898 R1         2 LUT      0.104030
    187 H382       83.2627   67.1260   33.9424 R1         2 LUT      0.104030
    188 H381       83.9385   68.6729   34.3639 R1         2 LUT      0.104030
    189 H373       86.9615   64.0174   35.5866 T4         2 LUT      0.089537
    190 H372       88.6622   64.3926   35.7260 T4         2 LUT      0.089537
    191 H371       87.3880   64.8984   36.9570 T4         2 LUT      0.089537
    192 H363       88.0724   67.3668   36.5599 T4         2 LUT      0.089537
    193 H362       89.3587   66.8470   35.3946 T4         2 LUT      0.089537
    194 H361       88.1518   68.2621   34.8938 T4         2 LUT      0.089537
    195 H222       88.8076   65.3127   33.4850 U2         2 LUT      0.127376
    196 H221       86.9904   64.9240   33.3762 U2         2 LUT      0.127376
    197 H203       72.2477   62.6489   41.0673 R7         2 LUT      0.087068
    198 H202       73.4188   63.5995   40.2106 R7         2 LUT      0.087068
    199 H201       73.9002   62.1326   40.9026 R7         2 LUT      0.087068
    200 H193       68.0244   61.7217   44.7400 R4         2 LUT      0.089716
    201 H192       69.4021   61.3133   43.6491 R4         2 LUT      0.089716
    202 H191       68.9744   60.3145   44.9508 R4         2 LUT      0.089716
    203 H183       65.8249   64.4977   47.8061 R1         2 LUT      0.094572
    204 H182       67.2868   65.4151   48.1192 R1         2 LUT      0.094572
    205 H181       67.1964   64.1126   46.9054 R1         2 LUT      0.094572
    206 H173       69.8801   61.8020   51.8139 T4         2 LUT      0.093752
    207 H172       70.5046   62.4773   50.3304 T4         2 LUT      0.093752
    208 H171       69.5290   63.4337   51.2407 T4         2 LUT      0.093752
    209 H163       68.3756   59.3756   49.7203 T4         2 LUT      0.093752
    210 H162       69.8033   60.2011   49.0214 T4         2 LUT      0.093752
    211 H161       69.6751   59.7761   50.6822 T4         2 LUT      0.093752
    212 HO3        66.3570   62.6437   53.3525 Q1         2 LUT      0.300121
    213 H8         69.8318   63.5708   47.1884 U7         2 LUT      0.080784
    214 H7         68.2302   60.9687   47.2939 U6         2 LUT      0.042190
    215 H42        65.7225   64.1962   50.0400 U5         2 LUT      0.145166
    216 H41        67.1921   64.7158   50.8001 U5         2 LUT      0.145166
    217 H35        77.3787   65.5518   42.7875 T3         2 LUT      0.077919
    218 H34        78.1101   64.3448   39.9462 T2         2 LUT      0.073626
    219 H32        80.1167   64.7383   39.0415 T1         2 LUT      0.092510
    220 H31        81.9964   66.8794   40.1225 U9         2 LUT      0.070048
    221 H30        82.0961   65.0480   37.7158 U8         2 LUT      0.085442
    222 H3         65.5163   62.4366   51.2931 U3         2 LUT     -0.031596
    223 H28        83.6018   65.4912   36.1643 U7         2 LUT      0.084728
    224 H27        85.3974   67.7699   36.6454 U6         2 LUT      0.087291
    225 H26        85.4144   65.5170   34.7062 Q6         2 LUT      0.075325
    226 H24        85.8656   67.7047   31.7692 Q5         2 LUT      0.094482
    227 H23        88.4872   67.3604   32.6977 U3         2 LUT     -0.024869
    228 H22        66.6768   60.8205   50.5210 U2         2 LUT      0.127376
    229 H21        67.7773   61.0804   51.9081 U2         2 LUT      0.127376
    230 H15        76.1063   63.7093   40.7990 T3         2 LUT      0.093200
    231 H14        74.9856   64.9032   43.4239 T2         2 LUT      0.068865
    232 H12        73.1408   64.2185   44.2983 T1         2 LUT      0.095507
    233 H11        71.4938   62.0969   42.9472 U9         2 LUT      0.068930
    234 H10        71.5375   63.4955   45.7935 U8         2 LUT      0.083911
    235 H1         87.7937   66.3308   30.5899 Q1         2 LUT      0.297311
@<TRIPOS>BOND
    1     6     1 1
    2     7     2 1
    3     8     3 1
    4     9     4 1
    5    11     4 1
    6    12     6 1
    7    13     9 1
    8    16     9 1
    9    25     5 1
   10    25    16 1
   11    26    10 1
   12    26    17 1
   13    27    18 1
   14    28    14 1
   15    28    19 1
   16    29    12 1
   17    30    13 1
   18    31    24 1
   19    32     1 1
   20    32    25 1
   21    33    21 1
   22    33    26 1
   23    34    22 1
   24    34    27 1
   25    35    23 1
   26    35    28 1
   27    36    12 1
   28    36    24 1
   29    37    13 1
   30    37    15 1
   31    38    31 1
   32    39    20 1
   33    39    32 1
   34    40     2 1
   35    40    33 1
   36    41     3 1
   37    41    34 1
   38    42     4 1
   39    42    35 1
   40    43    38 1
   41    44     5 1
   42    44    17 1
   43    44    39 1
   44    45    10 1
   45    45    18 1
   46    45    40 1
   47    46    19 1
   48    46    41 1
   49    47    14 1
   50    47    16 1
   51    47    42 1
   52    48    38 1
   53    49    48 1
   54    50    49 1
   55    51    50 1
   56    52    51 1
   57    53    51 1
   58    54    53 1
   59    55    54 1
   60    56    55 1
   61    57    56 1
   62    58    56 1
   63    59    58 1
   64    60    59 1
   65    61    60 1
   66    62    61 1
   67    63    61 1
   68    64    27 1
   69    64    46 1
   70    65     5 1
   71    65    10 1
   72    65    64 1
   73    65    14 1
   74    66    23 1
   75    67    23 1
   76    68    23 1
   77    69    22 1
   78    70    22 1
   79    71    22 1
   80    72    21 1
   81    73    21 1
   82    74    21 1
   83    75    20 1
   84    76    20 1
   85    77    20 1
   86    78    15 1
   87    79    15 1
   88    80    15 1
   89    81     8 1
   90    82     8 1
   91    83     8 1
   92    84     7 1
   93    85     7 1
   94    86     6 1
   95    87     6 1
   96    88     3 1
   97    89     3 1
   98    90     1 1
   99    91     1 1
  100    92    63 1
  101    93    63 1
  102    94    63 1
  103    95    62 1
  104    96    62 1
  105    97    62 1
  106    98    60 1
  107    99    60 1
  108   100    59 1
  109   101    59 1
  110   102    58 1
  111   103    58 1
  112   104    57 1
  113   105    57 1
  114   106    57 1
  115   107    55 1
  116   108    55 1
  117   109    54 1
  118   110    54 1
  119   111    53 1
  120   112    53 1
  121   113    19 1
  122   114    18 1
  123   115    17 1
  124   116     9 1
  125   117     2 1
  126   118    52 1
  127   119    52 1
  128   120    52 1
  129   121    51 1
  130   122    50 1
  131   123    50 1
  132   124    49 1
  133   125    49 1
  134   126    48 1
  135   127    48 1
  136   128    43 1
  137   129    43 1
  138   130    43 1
  139   131    39 1
  140   132    32 1
  141   133    31 1
  142   134    61 1
  143   135    56 1
  144   136    24 1
  145   137    24 1
  146   139   138 1
  147   140   139 1
  148   141   140 1
  149   142   140 1
  150   143   142 1
  151   144   138 1
  152   144   143 1
  153   145   144 1
  154   146   145 1
  155   147   146 1
  156   148   147 1
  157   149   148 1
  158   150   149 1
  159   151   150 1
  160   152   151 1
  161   153   152 1
  162   154   138 1
  163   155   138 1
  164   156   143 1
  165   157   147 1
  166   158   151 1
  167   160   159 1
  168   161   160 1
  169   162   161 1
  170   163   161 1
  171   164   163 1
  172   165   159 1
  173   165   164 1
  174   166   165 1
  175   167   166 1
  176   168   167 1
  177   169   168 1
  178   170   169 1
  179   171   170 1
  180   172   171 1
  181   173   172 1
  182   174   153 1
  183   174   173 1
  184   175   159 1
  185   176   159 1
  186   177   164 1
  187   178   168 1
  188   179   172 1
  189   180   179 1
  190   181   179 1
  191   182   179 1
  192   183   178 1
  193   184   178 1
  194   185   178 1
  195   186   177 1
  196   187   177 1
  197   188   177 1
  198   189   176 1
  199   190   176 1
  200   191   176 1
  201   192   175 1
  202   193   175 1
  203   194   175 1
  204   195   160 1
  205   196   160 1
  206   197   158 1
  207   198   158 1
  208   199   158 1
  209   200   157 1
  210   201   157 1
  211   202   157 1
  212   203   156 1
  213   204   156 1
  214   205   156 1
  215   206   155 1
  216   207   155 1
  217   208   155 1
  218   209   154 1
  219   210   154 1
  220   211   154 1
  221   212   141 1
  222   213   146 1
  223   214   145 1
  224   215   142 1
  225   216   142 1
  226   217   174 1
  227   218   173 1
  228   219   171 1
  229   220   170 1
  230   221   169 1
  231   222   140 1
  232   223   167 1
  233   224   166 1
  234   225   165 1
  235   226   163 1
  236   227   161 1
  237   228   139 1
  238   229   139 1
  239   230   153 1
  240   231   152 1
  241   232   150 1
  242   233   149 1
  243   234   148 1
  244   235   162 1
  245   65    153 1
  246   65    174 1
@<TRIPOS>SUBSTRUCTURE
      1 CLA               1 ****               0 ****  **** 
      2 LUT             138 ****               0 ****  **** 
