@<TRIPOS>MOLECULE
Cpptraj generated mol2 file.
  235   246     2     0     0
SMALL
USER_CHARGES


@<TRIPOS>ATOM
      1 CAA        77.8583   57.7392   33.7783 a2         1 CLA     -0.055900
      2 CAB        78.1588   61.3145   42.8150 c8         1 CLA     -0.148500
      3 CAC        71.0282   57.9690   42.6155 a2         1 CLA     -0.012600
      4 CAD        73.4657   55.3777   35.0134 ck         1 CLA      0.398800
      5 NA         76.9239   58.1436   37.2345 ns         1 CLA     -0.225500
      6 CBA        79.0532   57.4078   32.8309 a2         1 CLA     -0.135000
      7 CBB        79.3315   61.1692   43.5256 c0         1 CLA     -0.395200
      8 CBC        70.3609   56.6585   42.1958 a3         1 CLA     -0.037700
      9 CBD        74.9255   55.8210   34.6987 a1         1 CLA     -0.053900
     10 NB         76.8055   59.8142   39.7055 nm         1 CLA     -0.295700
     11 OBD        72.7596   54.5782   34.3559 o2         1 CLA     -0.494600
     12 CGA        79.2226   55.8885   32.3656 c4         1 CLA      0.827000
     13 CGD        75.8748   54.6970   34.2398 c4         1 CLA      0.655300
     14 ND         73.9963   57.4357   37.8106 nm         1 CLA     -0.291600
     15 CED        76.0447   52.3083   34.2130 a3         1 CLA      0.005400
     16 CHA        75.4495   56.7799   35.8290 cs         1 CLA     -0.123800
     17 CHB        78.7001   59.4108   38.1791 aa         1 CLA     -0.291900
     18 CHC        75.5293   60.1391   41.8438 aa         1 CLA     -0.090400
     19 CHD        72.1433   57.5244   39.4385 aa         1 CLA     -0.052000
     20 CMA        80.2473   57.0987   36.5851 a3         1 CLA     -0.230700
     21 CMB        80.3252   61.0836   40.3803 a3         1 CLA     -0.180800
     22 CMC        73.2396   59.7043   43.9211 a3         1 CLA     -0.134000
     23 CMD        70.7626   55.4699   37.3019 a3         1 CLA     -0.141100
     24 C1         79.9849   53.7898   32.8369 a2         1 CLA      0.023000
     25 C1A        76.6736   57.3657   36.0854 ac         1 CLA     -0.015100
     26 C1B        78.0945   60.0098   39.3143 cr         1 CLA      0.054700
     27 C1C        74.3431   59.4407   41.5358 cn         1 CLA     -0.005600
     28 C1D        72.6818   57.0868   38.2115 ap         1 CLA     -0.047300
     29 O1A        78.9354   55.4663   31.2613 o2         1 CLA     -0.610800
     30 O1D        76.6209   54.6733   33.2489 o2         1 CLA     -0.558200
     31 C2         80.5851   53.0357   34.0673 c8         1 CLA     -0.325100
     32 C2A        78.0025   57.1550   35.2524 a1         1 CLA      0.098600
     33 C2B        78.7800   60.6969   40.4329 cb         1 CLA      0.088500
     34 C2C        73.2568   59.1810   42.5361 cb         1 CLA      0.053700
     35 C2D        72.1355   56.1714   37.2061 cb         1 CLA      0.058900
     36 O2A        79.7563   55.1314   33.3290 o1         1 CLA     -0.437200
     37 O2D        75.7048   53.5338   34.9693 o1         1 CLA     -0.357600
     38 C3         81.5095   52.0370   34.0150 c5         1 CLA      0.031200
     39 C3A        79.0399   57.9129   36.1044 a1         1 CLA      0.166800
     40 C3B        77.8175   60.8598   41.4271 cb         1 CLA      0.035000
     41 C3C        72.2477   58.4382   41.8810 cb         1 CLA     -0.089900
     42 C3D        73.1828   56.0825   36.2273 cb         1 CLA     -0.035900
     43 C4         81.2201   50.5088   34.0110 a3         1 CLA     -0.053300
     44 C4A        78.2138   58.5618   37.2115 ac         1 CLA      0.001800
     45 C4B        76.6055   60.2854   41.0190 cn         1 CLA     -0.020900
     46 C4C        72.7598   58.2416   40.4562 cr         1 CLA     -0.044400
     47 C4D        74.2786   56.8534   36.6357 c6         1 CLA     -0.046000
     48 C5         82.9769   52.4017   33.9644 a2         1 CLA     -0.070400
     49 C6         83.5783   53.6150   34.5861 a2         1 CLA      0.043900
     50 C7         83.5806   53.5559   36.1681 a2         1 CLA     -0.150000
     51 C8         84.1126   54.8656   36.8239 a1         1 CLA      0.064200
     52 C9         85.6324   55.1591   36.4381 a3         1 CLA     -0.259300
     53 C10        84.0258   54.6858   38.3414 a2         1 CLA     -0.071900
     54 C11        82.5489   55.0148   38.8244 a2         1 CLA      0.014500
     55 C12        82.6493   55.0614   40.4174 a2         1 CLA     -0.112100
     56 C13        81.3208   55.3482   41.1649 a1         1 CLA      0.089200
     57 C14        80.4407   56.5143   40.6100 a3         1 CLA     -0.239100
     58 C15        81.5348   55.5956   42.7193 a2         1 CLA     -0.102200
     59 C16        81.9638   57.0365   43.1763 a2         1 CLA      0.023900
     60 C17        82.3004   56.9390   44.6615 a2         1 CLA     -0.105700
     61 C18        82.5429   58.3571   45.4106 a1         1 CLA      0.206800
     62 C19        83.6913   59.1529   44.7559 a3         1 CLA     -0.280100
     63 C20        81.2873   59.1354   45.7584 a3         1 CLA     -0.280100
     64 NC         74.0449   58.8043   40.3893 nx         1 CLA     -0.309200
     65 MG         75.3968   58.6504   38.6924 mg         1 CLA      0.895000
     66 HMD3       69.9968   56.1917   37.1322 dc         1 CLA      0.064300
     67 HMD2       70.7039   54.6158   36.6271 dc         1 CLA      0.064300
     68 HMD1       70.5705   55.1986   38.3473 dc         1 CLA      0.064300
     69 HMC3       73.8083   60.5591   44.1524 dc         1 CLA      0.052100
     70 HMC2       72.1746   59.9177   44.0790 dc         1 CLA      0.052100
     71 HMC1       73.5164   58.8372   44.5904 dc         1 CLA      0.052100
     72 HMB3       80.4654   61.4889   39.3827 dc         1 CLA      0.063600
     73 HMB2       80.5235   61.7425   41.2234 dc         1 CLA      0.063600
     74 HMB1       80.9244   60.1462   40.2873 dc         1 CLA      0.063600
     75 HMA3       80.8587   57.7124   37.2765 dc         1 CLA      0.058300
     76 HMA2       79.8561   56.2385   37.1411 dc         1 CLA      0.058300
     77 HMA1       80.7424   56.7562   35.7015 dc         1 CLA      0.058300
     78 HED3       77.1814   52.1858   34.0988 dc         1 CLA      0.079300
     79 HED2       75.7049   51.4176   34.6708 dc         1 CLA      0.079300
     80 HED1       75.6348   52.3133   33.1748 dc         1 CLA      0.079300
     81 HBC3       71.2264   56.0654   41.8601 dc         1 CLA      0.016300
     82 HBC2       69.7465   56.1964   43.0155 dc         1 CLA      0.016300
     83 HBC1       69.7325   56.7783   41.3318 dc         1 CLA      0.016300
     84 HBB2       79.4354   61.5160   44.5070 da         1 CLA      0.183000
     85 HBB1       80.1627   60.6143   43.0847 da         1 CLA      0.183000
     86 HBA2       79.0350   57.9477   31.8759 dc         1 CLA      0.029400
     87 HBA1       79.9794   57.7293   33.3087 dc         1 CLA      0.029400
     88 HAC2       71.3180   57.7405   43.6370 dc         1 CLA      0.029300
     89 HAC1       70.3479   58.8766   42.6876 dc         1 CLA      0.029300
     90 HAA2       76.9352   57.3656   33.3504 dc         1 CLA      0.028700
     91 HAA1       77.7493   58.8097   33.8032 dc         1 CLA      0.028700
     92 H203       81.4929   60.0608   46.2467 dc         1 CLA      0.065600
     93 H202       80.7642   59.3157   44.8907 dc         1 CLA      0.065600
     94 H201       80.6262   58.4849   46.3784 dc         1 CLA      0.065600
     95 H193       84.0559   60.0194   45.3671 dc         1 CLA      0.065600
     96 H192       84.5867   58.5144   44.5636 dc         1 CLA      0.065600
     97 H191       83.2800   59.5635   43.8546 dc         1 CLA      0.065600
     98 H172       81.5414   56.3943   45.0524 dc         1 CLA      0.027600
     99 H171       83.1579   56.3187   44.8151 dc         1 CLA      0.027600
    100 H162       82.7990   57.5263   42.7102 dc         1 CLA      0.002900
    101 H161       81.0781   57.7653   43.0135 dc         1 CLA      0.002900
    102 H152       80.5703   55.3831   43.1766 dc         1 CLA      0.029100
    103 H151       82.2252   54.8938   43.0413 dc         1 CLA      0.029100
    104 H143       80.9564   57.4171   40.5298 dc         1 CLA      0.063600
    105 H142       79.9192   56.2837   39.6456 dc         1 CLA      0.063600
    106 H141       79.6967   56.6460   41.3951 dc         1 CLA      0.063600
    107 H122       83.0340   54.0794   40.8414 dc         1 CLA      0.032500
    108 H121       83.3770   55.8058   40.7087 dc         1 CLA      0.032500
    109 H112       82.1702   55.9961   38.3609 dc         1 CLA      0.006600
    110 H111       81.9234   54.0978   38.6446 dc         1 CLA      0.006600
    111 H102       84.4576   53.7818   38.7438 dc         1 CLA      0.024100
    112 H101       84.6058   55.5852   38.5932 dc         1 CLA      0.024100
    113 HHD        71.0800   57.2830   39.5921 da         1 CLA      0.174300
    114 HHC        75.5128   60.5973   42.7725 da         1 CLA      0.136800
    115 HHB        79.7538   59.7398   38.1895 da         1 CLA      0.138300
    116 HBD        74.9254   56.5191   33.9379 dc         1 CLA      0.107700
    117 HAB        77.3490   61.8429   43.3177 da         1 CLA      0.155200
    118 H93        86.0919   56.0395   36.9320 dc         1 CLA      0.069500
    119 H92        86.1219   54.2210   36.7015 dc         1 CLA      0.069500
    120 H91        85.6683   55.3269   35.3878 dc         1 CLA      0.069500
    121 H8         83.4746   55.6701   36.4479 dc         1 CLA      0.029300
    122 H72        82.5946   53.3216   36.5674 dc         1 CLA      0.044400
    123 H71        84.4116   52.8227   36.4368 dc         1 CLA      0.044400
    124 H62        84.5860   53.6919   34.1866 dc         1 CLA      0.015600
    125 H61        82.9924   54.4808   34.3381 dc         1 CLA      0.015600
    126 H52        83.6023   51.5600   34.3309 dc         1 CLA      0.033200
    127 H51        83.2303   52.4198   32.8895 dc         1 CLA      0.033200
    128 H43        80.1354   50.3176   34.1152 dc         1 CLA      0.037000
    129 H42        81.4254   49.9976   33.0381 dc         1 CLA      0.037000
    130 H41        81.7004   49.9894   34.8844 dc         1 CLA      0.037000
    131 H3A        79.4508   58.6784   35.4775 dc         1 CLA      0.041100
    132 H2A        78.1892   56.1360   35.2419 dc         1 CLA      0.083100
    133 H2         80.3621   53.3378   35.1021 da         1 CLA      0.180900
    134 H18        82.9383   58.1352   46.4339 dc         1 CLA     -0.003900
    135 H13        80.6321   54.5215   41.1656 dc         1 CLA      0.019700
    136 H12        78.9886   53.2931   32.7182 dc         1 CLA      0.120400
    137 H11        80.5972   53.6648   31.9253 dc         1 CLA      0.120400
    138 C1         68.0541   61.2730   49.6368 Z1         2 LUT      0.509236
    139 C2         68.3426   62.5028   50.5239 Z2         2 LUT     -0.434695
    140 C3         67.1966   63.3917   51.0120 Z3         2 LUT      0.437453
    141 O3         67.6638   64.7348   51.3109 S1         2 LUT     -0.547129
    142 C4         66.0813   63.3814   49.9676 Z4         2 LUT     -0.468603
    143 C5         66.3865   62.8596   48.5901 Z5         2 LUT      0.279246
    144 C6         67.2853   61.8276   48.4384 Z6         2 LUT     -0.305473
    145 C7         67.9386   61.6331   47.1412 Z7         2 LUT      0.069402
    146 C8         69.0975   62.0507   46.5695 Z8         2 LUT     -0.191631
    147 C9         69.5851   61.6981   45.1894 Z9         2 LUT      0.196698
    148 C10        70.6400   62.4890   44.7176 Y1         2 LUT     -0.208611
    149 C11        71.1791   62.3833   43.3422 Y2         2 LUT      0.030784
    150 C12        72.3363   63.0929   42.9556 Y3         2 LUT     -0.220316
    151 C13        73.2296   62.9560   41.8272 Y4         2 LUT      0.215937
    152 C14        74.4200   63.5427   41.9052 Y5         2 LUT     -0.185793
    153 C15        75.4838   63.5378   40.9609 Y6         2 LUT     -0.057835
    154 C16        67.1887   60.4050   50.5630 Y7         2 LUT     -0.405615
    155 C17        69.4869   60.6790   49.4422 Y7         2 LUT     -0.405615
    156 C18        66.1235   63.9458   47.5825 Y9         2 LUT     -0.369639
    157 C19        69.0536   60.5146   44.4135 W1         2 LUT     -0.333362
    158 C20        72.7172   62.2977   40.5411 W2         2 LUT     -0.323439
    159 C21        86.6168   64.8137   34.4762 Z1         2 LUT      0.406104
    160 C22        87.2335   64.3345   33.1077 Z2         2 LUT     -0.404965
    161 C23        87.4066   65.4971   32.1362 Z3         2 LUT      0.391255
    162 O23        88.2159   65.0694   31.0205 S1         2 LUT     -0.528210
    163 C24        86.1159   66.2339   31.9639 W6         2 LUT     -0.258361
    164 C25        85.1702   66.3243   32.8991 Z5         2 LUT      0.133546
    165 C26        85.2866   65.5527   34.2006 W8         2 LUT     -0.147008
    166 C27        84.6191   66.1713   35.4354 Z7         2 LUT      0.023843
    167 C28        83.6456   65.4650   36.0783 Z8         2 LUT     -0.216987
    168 C29        82.8820   65.6502   37.3591 Z9         2 LUT      0.206524
    169 C30        81.8361   64.8381   37.6854 Y1         2 LUT     -0.215556
    170 C31        80.9774   65.0215   38.8019 Y2         2 LUT      0.025142
    171 C32        79.7894   64.3771   39.0739 Y3         2 LUT     -0.212209
    172 C33        78.9436   64.6064   40.2663 Y4         2 LUT      0.240937
    173 C34        77.7270   63.9535   40.2668 Y5         2 LUT     -0.218862
    174 C35        76.7313   64.0885   41.3292 Y6         2 LUT     -0.023547
    175 C36        87.5324   65.7306   35.3312 Y7         2 LUT     -0.393485
    176 C37        86.4528   63.5018   35.3243 Y7         2 LUT     -0.393485
    177 C38        83.9158   67.1126   32.5911 Y9         2 LUT     -0.387526
    178 C39        83.4484   66.6958   38.3223 W1         2 LUT     -0.322618
    179 C40        79.4321   65.5779   41.3395 W2         2 LUT     -0.358472
    180 H403       78.7077   65.6488   42.1201 R7         2 LUT      0.097720
    181 H402       80.3751   65.0927   41.6415 R7         2 LUT      0.097720
    182 H401       79.5715   66.5657   40.7976 R7         2 LUT      0.097720
    183 H393       83.4267   67.5743   37.7852 R4         2 LUT      0.082505
    184 H392       82.9201   66.9222   39.2501 R4         2 LUT      0.082505
    185 H391       84.4496   66.4896   38.6967 R4         2 LUT      0.082505
    186 H383       83.5658   67.8567   33.4174 R1         2 LUT      0.104030
    187 H382       84.0369   67.5984   31.5978 R1         2 LUT      0.104030
    188 H381       83.0732   66.4215   32.4458 R1         2 LUT      0.104030
    189 H373       87.3235   62.9085   35.5866 T4         2 LUT      0.089537
    190 H372       86.0786   63.6562   36.3393 T4         2 LUT      0.089537
    191 H371       85.6461   62.8258   35.0446 T4         2 LUT      0.089537
    192 H363       87.6744   66.7586   34.8853 T4         2 LUT      0.089537
    193 H362       87.2638   65.8720   36.4121 T4         2 LUT      0.089537
    194 H361       88.4393   65.1717   35.3704 T4         2 LUT      0.089537
    195 H222       88.1992   63.8416   33.3560 U2         2 LUT      0.127376
    196 H221       86.7759   63.4331   32.7016 U2         2 LUT      0.127376
    197 H203       71.6788   62.3622   40.4162 R7         2 LUT      0.087068
    198 H202       73.1470   62.7175   39.6718 R7         2 LUT      0.087068
    199 H201       72.9208   61.2649   40.5887 R7         2 LUT      0.087068
    200 H193       69.1275   60.6237   43.3499 R4         2 LUT      0.089716
    201 H192       69.5862   59.6312   44.6399 R4         2 LUT      0.089716
    202 H191       67.9898   60.3250   44.4660 R4         2 LUT      0.089716
    203 H183       65.0678   64.1738   47.6113 R1         2 LUT      0.094572
    204 H182       66.8022   64.7265   47.8614 R1         2 LUT      0.094572
    205 H181       66.2066   63.5478   46.5715 R1         2 LUT      0.094572
    206 H173       70.0820   60.5458   50.3859 T4         2 LUT      0.093752
    207 H172       69.4623   59.7006   48.8971 T4         2 LUT      0.093752
    208 H171       70.1290   61.2200   48.7493 T4         2 LUT      0.093752
    209 H163       66.2945   60.9105   50.7638 T4         2 LUT      0.093752
    210 H162       66.9007   59.4906   50.0549 T4         2 LUT      0.093752
    211 H161       67.5915   60.1109   51.5146 T4         2 LUT      0.093752
    212 HO3        66.9872   65.1900   51.8992 Q1         2 LUT      0.300121
    213 H8         69.7404   62.7536   47.1354 U7         2 LUT      0.080784
    214 H7         67.3863   60.9212   46.5324 U6         2 LUT      0.042190
    215 H42        65.2777   62.7395   50.2524 U5         2 LUT      0.145166
    216 H41        65.6715   64.3370   49.9550 U5         2 LUT      0.145166
    217 H35        77.0532   64.5071   42.3421 T3         2 LUT      0.077919
    218 H34        77.4199   63.5333   39.3602 T2         2 LUT      0.073626
    219 H32        79.4498   63.5632   38.3603 T1         2 LUT      0.092510
    220 H31        81.3036   65.7285   39.5800 U9         2 LUT      0.070048
    221 H30        81.5204   64.1970   36.8760 U8         2 LUT      0.085442
    222 H3         66.7311   62.8222   51.9039 U3         2 LUT     -0.031596
    223 H28        83.0893   64.8481   35.3144 U7         2 LUT      0.084728
    224 H27        85.0206   67.0080   35.9674 U6         2 LUT      0.087291
    225 H26        84.6505   64.7029   33.8600 Q6         2 LUT      0.075325
    226 H24        86.0722   66.7498   31.0190 Q5         2 LUT      0.094482
    227 H23        88.0718   66.1641   32.7561 U3         2 LUT     -0.024869
    228 H22        68.7871   62.3393   51.4950 U2         2 LUT      0.127376
    229 H21        69.0573   63.1079   49.9357 U2         2 LUT      0.127376
    230 H15        75.2932   63.1751   39.9562 T3         2 LUT      0.093200
    231 H14        74.5925   63.9935   42.8937 T2         2 LUT      0.068865
    232 H12        72.7446   63.8259   43.6729 T1         2 LUT      0.095507
    233 H11        70.7694   61.7222   42.6139 U9         2 LUT      0.068930
    234 H10        70.9238   63.3334   45.3086 U8         2 LUT      0.083911
    235 H1         87.7227   64.6499   30.2572 Q1         2 LUT      0.297311
@<TRIPOS>BOND
    1     6     1 1
    2     7     2 1
    3     8     3 1
    4     9     4 1
    5    11     4 1
    6    12     6 1
    7    13     9 1
    8    16     9 1
    9    25     5 1
   10    25    16 1
   11    26    10 1
   12    26    17 1
   13    27    18 1
   14    28    14 1
   15    28    19 1
   16    29    12 1
   17    30    13 1
   18    31    24 1
   19    32     1 1
   20    32    25 1
   21    33    21 1
   22    33    26 1
   23    34    22 1
   24    34    27 1
   25    35    23 1
   26    35    28 1
   27    36    12 1
   28    36    24 1
   29    37    13 1
   30    37    15 1
   31    38    31 1
   32    39    20 1
   33    39    32 1
   34    40     2 1
   35    40    33 1
   36    41     3 1
   37    41    34 1
   38    42     4 1
   39    42    35 1
   40    43    38 1
   41    44     5 1
   42    44    17 1
   43    44    39 1
   44    45    10 1
   45    45    18 1
   46    45    40 1
   47    46    19 1
   48    46    41 1
   49    47    14 1
   50    47    16 1
   51    47    42 1
   52    48    38 1
   53    49    48 1
   54    50    49 1
   55    51    50 1
   56    52    51 1
   57    53    51 1
   58    54    53 1
   59    55    54 1
   60    56    55 1
   61    57    56 1
   62    58    56 1
   63    59    58 1
   64    60    59 1
   65    61    60 1
   66    62    61 1
   67    63    61 1
   68    64    27 1
   69    64    46 1
   70    65     5 1
   71    65    10 1
   72    65    64 1
   73    65    14 1
   74    66    23 1
   75    67    23 1
   76    68    23 1
   77    69    22 1
   78    70    22 1
   79    71    22 1
   80    72    21 1
   81    73    21 1
   82    74    21 1
   83    75    20 1
   84    76    20 1
   85    77    20 1
   86    78    15 1
   87    79    15 1
   88    80    15 1
   89    81     8 1
   90    82     8 1
   91    83     8 1
   92    84     7 1
   93    85     7 1
   94    86     6 1
   95    87     6 1
   96    88     3 1
   97    89     3 1
   98    90     1 1
   99    91     1 1
  100    92    63 1
  101    93    63 1
  102    94    63 1
  103    95    62 1
  104    96    62 1
  105    97    62 1
  106    98    60 1
  107    99    60 1
  108   100    59 1
  109   101    59 1
  110   102    58 1
  111   103    58 1
  112   104    57 1
  113   105    57 1
  114   106    57 1
  115   107    55 1
  116   108    55 1
  117   109    54 1
  118   110    54 1
  119   111    53 1
  120   112    53 1
  121   113    19 1
  122   114    18 1
  123   115    17 1
  124   116     9 1
  125   117     2 1
  126   118    52 1
  127   119    52 1
  128   120    52 1
  129   121    51 1
  130   122    50 1
  131   123    50 1
  132   124    49 1
  133   125    49 1
  134   126    48 1
  135   127    48 1
  136   128    43 1
  137   129    43 1
  138   130    43 1
  139   131    39 1
  140   132    32 1
  141   133    31 1
  142   134    61 1
  143   135    56 1
  144   136    24 1
  145   137    24 1
  146   139   138 1
  147   140   139 1
  148   141   140 1
  149   142   140 1
  150   143   142 1
  151   144   138 1
  152   144   143 1
  153   145   144 1
  154   146   145 1
  155   147   146 1
  156   148   147 1
  157   149   148 1
  158   150   149 1
  159   151   150 1
  160   152   151 1
  161   153   152 1
  162   154   138 1
  163   155   138 1
  164   156   143 1
  165   157   147 1
  166   158   151 1
  167   160   159 1
  168   161   160 1
  169   162   161 1
  170   163   161 1
  171   164   163 1
  172   165   159 1
  173   165   164 1
  174   166   165 1
  175   167   166 1
  176   168   167 1
  177   169   168 1
  178   170   169 1
  179   171   170 1
  180   172   171 1
  181   173   172 1
  182   174   153 1
  183   174   173 1
  184   175   159 1
  185   176   159 1
  186   177   164 1
  187   178   168 1
  188   179   172 1
  189   180   179 1
  190   181   179 1
  191   182   179 1
  192   183   178 1
  193   184   178 1
  194   185   178 1
  195   186   177 1
  196   187   177 1
  197   188   177 1
  198   189   176 1
  199   190   176 1
  200   191   176 1
  201   192   175 1
  202   193   175 1
  203   194   175 1
  204   195   160 1
  205   196   160 1
  206   197   158 1
  207   198   158 1
  208   199   158 1
  209   200   157 1
  210   201   157 1
  211   202   157 1
  212   203   156 1
  213   204   156 1
  214   205   156 1
  215   206   155 1
  216   207   155 1
  217   208   155 1
  218   209   154 1
  219   210   154 1
  220   211   154 1
  221   212   141 1
  222   213   146 1
  223   214   145 1
  224   215   142 1
  225   216   142 1
  226   217   174 1
  227   218   173 1
  228   219   171 1
  229   220   170 1
  230   221   169 1
  231   222   140 1
  232   223   167 1
  233   224   166 1
  234   225   165 1
  235   226   163 1
  236   227   161 1
  237   228   139 1
  238   229   139 1
  239   230   153 1
  240   231   152 1
  241   232   150 1
  242   233   149 1
  243   234   148 1
  244   235   162 1
  245   65    153 1
  246   65    174 1
@<TRIPOS>SUBSTRUCTURE
      1 CLA               1 ****               0 ****  **** 
      2 LUT             138 ****               0 ****  **** 
