@<TRIPOS>MOLECULE
Cpptraj generated mol2 file.
  235   246     2     0     0
SMALL
USER_CHARGES


@<TRIPOS>ATOM
      1 CAA        79.2046   59.3695   33.4508 a2         1 CLA     -0.055900
      2 CAB        79.1382   62.8540   42.5037 c8         1 CLA     -0.148500
      3 CAC        72.3510   58.3189   42.0712 a2         1 CLA     -0.012600
      4 CAD        75.2732   56.5559   34.6600 ck         1 CLA      0.398800
      5 NA         78.2871   59.3989   36.9422 ns         1 CLA     -0.225500
      6 CBA        80.4024   59.3878   32.5286 a2         1 CLA     -0.135000
      7 CBB        80.1656   62.6168   43.3585 c0         1 CLA     -0.395200
      8 CBC        72.6351   56.8749   42.2999 a3         1 CLA     -0.037700
      9 CBD        76.6302   57.2542   34.1670 a1         1 CLA     -0.053900
     10 NB         77.9845   60.9175   39.5580 nm         1 CLA     -0.295700
     11 OBD        74.5870   55.7876   34.0101 o2         1 CLA     -0.494600
     12 CGA        81.0658   58.0448   32.2078 c4         1 CLA      0.827000
     13 CGD        77.6364   56.1816   33.7201 c4         1 CLA      0.655300
     14 ND         75.5627   58.3841   37.5167 nm         1 CLA     -0.291600
     15 CED        78.8182   54.2462   34.3094 a3         1 CLA      0.005400
     16 CHA        77.0350   58.0680   35.4380 cs         1 CLA     -0.123800
     17 CHB        79.9815   60.7379   38.0696 aa         1 CLA     -0.291900
     18 CHC        76.5794   61.1265   41.5334 aa         1 CLA     -0.090400
     19 CHD        73.6828   58.0820   39.1838 aa         1 CLA     -0.052000
     20 CMA        81.6859   58.9856   36.2080 a3         1 CLA     -0.230700
     21 CMB        81.3752   62.5507   40.1560 a3         1 CLA     -0.180800
     22 CMC        74.4932   60.1144   43.6381 a3         1 CLA     -0.134000
     23 CMD        72.6590   56.1304   36.8022 a3         1 CLA     -0.141100
     24 C1         81.9786   56.0512   33.1138 a2         1 CLA      0.023000
     25 C1A        78.1392   58.7749   35.7538 ac         1 CLA     -0.015100
     26 C1B        79.3100   61.1642   39.2398 cr         1 CLA      0.054700
     27 C1C        75.4921   60.2719   41.2909 cn         1 CLA     -0.005600
     28 C1D        74.3187   57.8295   37.8876 ap         1 CLA     -0.047300
     29 O1A        81.0152   57.5410   31.0993 o2         1 CLA     -0.610800
     30 O1D        78.4306   56.2862   32.8273 o2         1 CLA     -0.558200
     31 C2         82.5508   55.5679   34.4532 c8         1 CLA     -0.325100
     32 C2A        79.4836   58.8972   34.9327 a1         1 CLA      0.098600
     33 C2B        79.9385   62.0531   40.2467 cb         1 CLA      0.088500
     34 C2C        74.4794   59.8085   42.2080 cb         1 CLA      0.053700
     35 C2D        73.9305   56.9379   36.8656 cb         1 CLA      0.058900
     36 O2A        81.6329   57.4487   33.3148 o1         1 CLA     -0.437200
     37 O2D        77.7213   55.1519   34.6320 o1         1 CLA     -0.357600
     38 C3         83.4631   54.6073   34.6244 c5         1 CLA      0.031200
     39 C3A        80.4301   59.7103   35.7650 a1         1 CLA      0.166800
     40 C3B        78.9470   62.2189   41.2212 cb         1 CLA      0.035000
     41 C3C        73.5604   59.0474   41.5055 cb         1 CLA     -0.089900
     42 C3D        74.9069   57.0065   35.8721 cb         1 CLA     -0.035900
     43 C4         83.0303   53.1324   34.7362 a3         1 CLA     -0.053300
     44 C4A        79.5274   59.9745   36.9736 ac         1 CLA      0.001800
     45 C4B        77.7240   61.4297   40.8016 cn         1 CLA     -0.020900
     46 C4C        74.1496   58.8675   40.2129 cr         1 CLA     -0.044400
     47 C4D        75.9453   57.8919   36.3194 c6         1 CLA     -0.046000
     48 C5         85.0038   54.8547   34.5368 a2         1 CLA     -0.070400
     49 C6         85.4607   56.1532   35.2083 a2         1 CLA      0.043900
     50 C7         85.5476   56.1050   36.7982 a2         1 CLA     -0.150000
     51 C8         85.4055   57.3680   37.5156 a1         1 CLA      0.064200
     52 C9         86.3971   58.3914   37.0474 a3         1 CLA     -0.259300
     53 C10        85.5186   57.1394   39.0906 a2         1 CLA     -0.071900
     54 C11        85.4388   58.4232   39.9382 a2         1 CLA      0.014500
     55 C12        85.0459   58.0366   41.4459 a2         1 CLA     -0.112100
     56 C13        84.6668   59.2173   42.3794 a1         1 CLA      0.089200
     57 C14        85.8919   59.9557   42.9532 a3         1 CLA     -0.239100
     58 C15        83.6453   58.7802   43.4316 a2         1 CLA     -0.102200
     59 C16        82.1870   58.6243   42.9810 a2         1 CLA      0.023900
     60 C17        81.2718   58.1277   44.0832 a2         1 CLA     -0.105700
     61 C18        79.8307   57.7887   43.6734 a1         1 CLA      0.206800
     62 C19        79.0016   57.3972   44.9298 a3         1 CLA     -0.280100
     63 C20        79.1471   58.9483   42.9770 a3         1 CLA     -0.280100
     64 NC         75.2909   59.6681   40.0879 nx         1 CLA     -0.309200
     65 MG         76.7030   59.7137   38.4699 mg         1 CLA      0.895000
     66 HMD3       72.6157   55.1564   37.4044 dc         1 CLA      0.064300
     67 HMD2       71.7419   56.5752   37.1034 dc         1 CLA      0.064300
     68 HMD1       72.5924   55.7337   35.7879 dc         1 CLA      0.064300
     69 HMC3       74.4491   61.1949   43.6691 dc         1 CLA      0.052100
     70 HMC2       73.6979   59.6788   44.2258 dc         1 CLA      0.052100
     71 HMC1       75.4103   59.7114   44.0905 dc         1 CLA      0.052100
     72 HMB3       81.9523   62.5659   41.0469 dc         1 CLA      0.063600
     73 HMB2       81.8536   61.9759   39.3449 dc         1 CLA      0.063600
     74 HMB1       81.2634   63.5803   39.7565 dc         1 CLA      0.063600
     75 HMA3       82.1221   58.6354   35.3030 dc         1 CLA      0.058300
     76 HMA2       82.3618   59.6407   36.7531 dc         1 CLA      0.058300
     77 HMA1       81.3654   58.1340   36.7572 dc         1 CLA      0.058300
     78 HED3       78.5071   53.4152   34.8985 dc         1 CLA      0.079300
     79 HED2       78.8717   53.8527   33.2352 dc         1 CLA      0.079300
     80 HED1       79.7449   54.5170   34.7487 dc         1 CLA      0.079300
     81 HBC3       73.3755   56.7397   43.0990 dc         1 CLA      0.016300
     82 HBC2       71.7565   56.3730   42.5759 dc         1 CLA      0.016300
     83 HBC1       73.0345   56.3766   41.3998 dc         1 CLA      0.016300
     84 HBB2       80.3857   63.3020   44.2145 da         1 CLA      0.183000
     85 HBB1       80.9062   61.8112   43.0610 da         1 CLA      0.183000
     86 HBA2       80.0875   59.9404   31.6318 dc         1 CLA      0.029400
     87 HBA1       81.2122   59.8635   33.0772 dc         1 CLA      0.029400
     88 HAC2       71.9354   58.8333   42.9689 dc         1 CLA      0.029300
     89 HAC1       71.5612   58.5034   41.3823 dc         1 CLA      0.029300
     90 HAA2       78.4022   58.7582   32.9665 dc         1 CLA      0.028700
     91 HAA1       78.9603   60.4052   33.4412 dc         1 CLA      0.028700
     92 H203       79.6298   59.1643   42.0345 dc         1 CLA      0.065600
     93 H202       78.1012   58.8358   42.8450 dc         1 CLA      0.065600
     94 H201       79.3250   59.7988   43.5978 dc         1 CLA      0.065600
     95 H193       77.9788   57.1580   44.7337 dc         1 CLA      0.065600
     96 H192       79.3863   56.5236   45.4212 dc         1 CLA      0.065600
     97 H191       79.0208   58.2045   45.7192 dc         1 CLA      0.065600
     98 H172       81.7255   57.1928   44.5035 dc         1 CLA      0.027600
     99 H171       81.2270   58.8843   44.9307 dc         1 CLA      0.027600
    100 H162       81.9121   59.5859   42.5449 dc         1 CLA      0.002900
    101 H161       82.1976   57.9911   42.0432 dc         1 CLA      0.002900
    102 H152       84.0419   57.8538   43.7290 dc         1 CLA      0.029100
    103 H151       83.6041   59.5439   44.2044 dc         1 CLA      0.029100
    104 H143       85.6782   60.8933   43.4469 dc         1 CLA      0.063600
    105 H142       86.3972   59.2673   43.5950 dc         1 CLA      0.063600
    106 H141       86.4295   60.2649   42.0564 dc         1 CLA      0.063600
    107 H122       84.0866   57.5199   41.4829 dc         1 CLA      0.032500
    108 H121       85.8587   57.5825   41.9520 dc         1 CLA      0.032500
    109 H112       86.4155   58.9127   39.9119 dc         1 CLA      0.006600
    110 H111       84.7163   59.1412   39.5764 dc         1 CLA      0.006600
    111 H102       84.7338   56.3746   39.3168 dc         1 CLA      0.024100
    112 H101       86.4295   56.6403   39.3732 dc         1 CLA      0.024100
    113 HHD        72.7442   57.5286   39.3054 da         1 CLA      0.174300
    114 HHC        76.5835   61.4302   42.6076 da         1 CLA      0.136800
    115 HHB        80.9377   61.1555   37.8244 da         1 CLA      0.138300
    116 HBD        76.3215   57.7160   33.2376 dc         1 CLA      0.107700
    117 HAB        78.4936   63.7352   42.7117 da         1 CLA      0.155200
    118 H93        86.2050   59.3463   37.5835 dc         1 CLA      0.069500
    119 H92        87.4246   58.1212   37.3437 dc         1 CLA      0.069500
    120 H91        86.3194   58.6856   35.9709 dc         1 CLA      0.069500
    121 H8         84.3813   57.7486   37.2482 dc         1 CLA      0.029300
    122 H72        84.8307   55.3635   37.1420 dc         1 CLA      0.044400
    123 H71        86.5132   55.7323   37.1218 dc         1 CLA      0.044400
    124 H62        86.4638   56.1746   34.8539 dc         1 CLA      0.015600
    125 H61        84.8223   57.0718   34.9304 dc         1 CLA      0.015600
    126 H52        85.6276   54.0780   35.0331 dc         1 CLA      0.033200
    127 H51        85.2813   55.0744   33.4619 dc         1 CLA      0.033200
    128 H43        83.6487   52.4516   34.1715 dc         1 CLA      0.037000
    129 H42        83.1084   52.9553   35.7833 dc         1 CLA      0.037000
    130 H41        81.9940   53.1023   34.4151 dc         1 CLA      0.037000
    131 H3A        80.6471   60.5873   35.2462 dc         1 CLA      0.041100
    132 H2A        79.8872   57.8967   34.9947 dc         1 CLA      0.083100
    133 H2         82.1619   55.9750   35.3334 da         1 CLA      0.180900
    134 H18        79.7379   56.9592   42.9464 dc         1 CLA     -0.003900
    135 H13        84.1296   59.9041   41.6750 dc         1 CLA      0.019700
    136 H12        81.0079   55.5323   32.9532 dc         1 CLA      0.120400
    137 H11        82.7548   55.9419   32.4003 dc         1 CLA      0.120400
    138 C1         68.4324   61.7810   48.9778 Z1         2 LUT      0.509236
    139 C2         67.0099   61.4726   49.4297 Z2         2 LUT     -0.434695
    140 C3         66.1444   62.6072   49.9061 Z3         2 LUT      0.437453
    141 O3         65.8622   62.4759   51.2909 S1         2 LUT     -0.547129
    142 C4         66.5883   63.9760   49.3998 Z4         2 LUT     -0.468603
    143 C5         67.3815   63.8757   48.0832 Z5         2 LUT      0.279246
    144 C6         68.3011   62.8986   47.8474 Z6         2 LUT     -0.305473
    145 C7         68.8923   62.6093   46.5164 Z7         2 LUT      0.069402
    146 C8         70.0727   62.9006   45.9016 Z8         2 LUT     -0.191631
    147 C9         70.6114   62.4884   44.6038 Z9         2 LUT      0.196698
    148 C10        71.7989   63.0836   44.1585 Y1         2 LUT     -0.208611
    149 C11        72.5608   62.9716   42.8893 Y2         2 LUT      0.030784
    150 C12        73.7940   63.6237   42.7484 Y3         2 LUT     -0.220316
    151 C13        74.6904   63.6711   41.5224 Y4         2 LUT      0.215937
    152 C14        75.8216   64.4022   41.7593 Y5         2 LUT     -0.185793
    153 C15        76.8487   64.6636   40.7832 Y6         2 LUT     -0.057835
    154 C16        69.2936   60.6140   48.5567 Y7         2 LUT     -0.405615
    155 C17        69.2058   62.3256   50.2270 Y7         2 LUT     -0.405615
    156 C18        66.7197   64.6914   47.0271 Y9         2 LUT     -0.369639
    157 C19        69.9781   61.3414   43.9095 W1         2 LUT     -0.333362
    158 C20        74.4203   63.1283   40.0892 W2         2 LUT     -0.323439
    159 C21        88.0020   66.1071   34.4252 Z1         2 LUT      0.406104
    160 C22        88.6419   65.4843   33.1546 Z2         2 LUT     -0.404965
    161 C23        88.6287   66.3639   31.8862 Z3         2 LUT      0.391255
    162 O23        89.3680   65.7363   30.8209 S1         2 LUT     -0.528210
    163 C24        87.3870   67.1629   31.8306 W6         2 LUT     -0.258361
    164 C25        86.4315   67.3270   32.7692 Z5         2 LUT      0.133546
    165 C26        86.5490   66.5566   34.1512 W8         2 LUT     -0.147008
    166 C27        85.9586   67.2450   35.3060 Z7         2 LUT      0.023843
    167 C28        84.7067   67.0538   35.8318 Z8         2 LUT     -0.216987
    168 C29        84.1956   67.5761   37.1153 Z9         2 LUT      0.206524
    169 C30        83.1252   66.8947   37.5689 Y1         2 LUT     -0.215556
    170 C31        82.2670   67.1810   38.7416 Y2         2 LUT      0.025142
    171 C32        81.0412   66.5589   38.9714 Y3         2 LUT     -0.212209
    172 C33        80.1193   66.6245   40.0645 Y4         2 LUT      0.240937
    173 C34        78.9744   65.7903   40.0636 Y5         2 LUT     -0.218862
    174 C35        77.8584   65.5813   41.0034 Y6         2 LUT     -0.023547
    175 C36        88.9005   67.2843   34.8117 Y7         2 LUT     -0.393485
    176 C37        88.0453   64.9614   35.5497 Y7         2 LUT     -0.393485
    177 C38        85.2942   68.2723   32.6348 Y9         2 LUT     -0.387526
    178 C39        84.6816   68.8805   37.7868 W1         2 LUT     -0.322618
    179 C40        80.4008   67.6309   41.1492 W2         2 LUT     -0.358472
    180 H403       80.3747   68.6867   40.8142 R7         2 LUT      0.097720
    181 H402       79.8540   67.4939   42.0822 R7         2 LUT      0.097720
    182 H401       81.3921   67.5754   41.4656 R7         2 LUT      0.097720
    183 H393       85.2954   69.4067   37.0659 R4         2 LUT      0.082505
    184 H392       83.9055   69.5618   38.1893 R4         2 LUT      0.082505
    185 H391       85.4309   68.6180   38.5375 R4         2 LUT      0.082505
    186 H383       84.3441   67.8072   32.9074 R1         2 LUT      0.104030
    187 H382       85.4743   69.0924   33.3756 R1         2 LUT      0.104030
    188 H381       85.2254   68.7572   31.6987 R1         2 LUT      0.104030
    189 H373       87.7700   64.0466   35.0821 T4         2 LUT      0.089537
    190 H372       88.9725   64.8011   36.0438 T4         2 LUT      0.089537
    191 H371       87.3184   65.2546   36.3830 T4         2 LUT      0.089537
    192 H363       88.9517   68.0690   34.0367 T4         2 LUT      0.089537
    193 H362       88.6791   67.8021   35.7902 T4         2 LUT      0.089537
    194 H361       89.9441   66.9432   34.9779 T4         2 LUT      0.089537
    195 H222       89.6979   65.2732   33.3258 U2         2 LUT      0.127376
    196 H221       88.1003   64.5725   32.9446 U2         2 LUT      0.127376
    197 H203       73.5909   62.3983   39.9925 R7         2 LUT      0.087068
    198 H202       74.2591   63.8910   39.3490 R7         2 LUT      0.087068
    199 H201       75.2083   62.4759   39.7458 R7         2 LUT      0.087068
    200 H193       70.5357   60.9201   43.0544 R4         2 LUT      0.089716
    201 H192       69.9853   60.4512   44.5629 R4         2 LUT      0.089716
    202 H191       68.9835   61.6092   43.5173 R4         2 LUT      0.089716
    203 H183       67.2013   65.6794   47.0483 R1         2 LUT      0.094572
    204 H182       66.8959   64.2821   46.0288 R1         2 LUT      0.094572
    205 H181       65.5953   64.7871   47.1522 R1         2 LUT      0.094572
    206 H173       68.9756   61.5949   50.9845 T4         2 LUT      0.093752
    207 H172       70.3184   62.4190   50.0546 T4         2 LUT      0.093752
    208 H171       68.8939   63.3047   50.5723 T4         2 LUT      0.093752
    209 H163       68.7211   60.0939   47.7852 T4         2 LUT      0.093752
    210 H162       70.2741   60.8204   48.0840 T4         2 LUT      0.093752
    211 H161       69.4389   59.7958   49.3758 T4         2 LUT      0.093752
    212 HO3        66.6083   62.4900   51.9065 Q1         2 LUT      0.300121
    213 H8         70.8062   63.5240   46.4255 U7         2 LUT      0.080784
    214 H7         68.3795   61.9012   45.9306 U6         2 LUT      0.042190
    215 H42        65.7552   64.6073   49.1772 U5         2 LUT      0.145166
    216 H41        67.1022   64.6510   50.0870 U5         2 LUT      0.145166
    217 H35        77.7718   66.0617   41.9841 T3         2 LUT      0.077919
    218 H34        78.8617   65.1931   39.1626 T2         2 LUT      0.073626
    219 H32        80.7642   65.8991   38.0914 T1         2 LUT      0.092510
    220 H31        82.6473   67.7236   39.5665 U9         2 LUT      0.070048
    221 H30        82.8146   65.9239   37.0798 U8         2 LUT      0.085442
    222 H3         65.2550   62.3611   49.4030 U3         2 LUT     -0.031596
    223 H28        84.1538   66.2073   35.4072 U7         2 LUT      0.084728
    224 H27        86.6025   67.8719   35.8696 U6         2 LUT      0.087291
    225 H26        85.9742   65.6431   34.0870 Q6         2 LUT      0.075325
    226 H24        87.4289   67.8374   30.9149 Q5         2 LUT      0.094482
    227 H23        89.4263   67.0958   32.2059 U3         2 LUT     -0.024869
    228 H22        66.5966   61.0427   48.5446 U2         2 LUT      0.127376
    229 H21        67.0558   60.7630   50.2856 U2         2 LUT      0.127376
    230 H15        76.7998   64.2676   39.7342 T3         2 LUT      0.093200
    231 H14        75.8854   64.8261   42.7549 T2         2 LUT      0.068865
    232 H12        73.9620   64.2864   43.5868 T1         2 LUT      0.095507
    233 H11        72.1816   62.3895   42.0676 U9         2 LUT      0.068930
    234 H10        72.2681   63.8110   44.8064 U8         2 LUT      0.083911
    235 H1         88.8912   65.1143   30.2857 Q1         2 LUT      0.297311
@<TRIPOS>BOND
    1     6     1 1
    2     7     2 1
    3     8     3 1
    4     9     4 1
    5    11     4 1
    6    12     6 1
    7    13     9 1
    8    16     9 1
    9    25     5 1
   10    25    16 1
   11    26    10 1
   12    26    17 1
   13    27    18 1
   14    28    14 1
   15    28    19 1
   16    29    12 1
   17    30    13 1
   18    31    24 1
   19    32     1 1
   20    32    25 1
   21    33    21 1
   22    33    26 1
   23    34    22 1
   24    34    27 1
   25    35    23 1
   26    35    28 1
   27    36    12 1
   28    36    24 1
   29    37    13 1
   30    37    15 1
   31    38    31 1
   32    39    20 1
   33    39    32 1
   34    40     2 1
   35    40    33 1
   36    41     3 1
   37    41    34 1
   38    42     4 1
   39    42    35 1
   40    43    38 1
   41    44     5 1
   42    44    17 1
   43    44    39 1
   44    45    10 1
   45    45    18 1
   46    45    40 1
   47    46    19 1
   48    46    41 1
   49    47    14 1
   50    47    16 1
   51    47    42 1
   52    48    38 1
   53    49    48 1
   54    50    49 1
   55    51    50 1
   56    52    51 1
   57    53    51 1
   58    54    53 1
   59    55    54 1
   60    56    55 1
   61    57    56 1
   62    58    56 1
   63    59    58 1
   64    60    59 1
   65    61    60 1
   66    62    61 1
   67    63    61 1
   68    64    27 1
   69    64    46 1
   70    65     5 1
   71    65    10 1
   72    65    64 1
   73    65    14 1
   74    66    23 1
   75    67    23 1
   76    68    23 1
   77    69    22 1
   78    70    22 1
   79    71    22 1
   80    72    21 1
   81    73    21 1
   82    74    21 1
   83    75    20 1
   84    76    20 1
   85    77    20 1
   86    78    15 1
   87    79    15 1
   88    80    15 1
   89    81     8 1
   90    82     8 1
   91    83     8 1
   92    84     7 1
   93    85     7 1
   94    86     6 1
   95    87     6 1
   96    88     3 1
   97    89     3 1
   98    90     1 1
   99    91     1 1
  100    92    63 1
  101    93    63 1
  102    94    63 1
  103    95    62 1
  104    96    62 1
  105    97    62 1
  106    98    60 1
  107    99    60 1
  108   100    59 1
  109   101    59 1
  110   102    58 1
  111   103    58 1
  112   104    57 1
  113   105    57 1
  114   106    57 1
  115   107    55 1
  116   108    55 1
  117   109    54 1
  118   110    54 1
  119   111    53 1
  120   112    53 1
  121   113    19 1
  122   114    18 1
  123   115    17 1
  124   116     9 1
  125   117     2 1
  126   118    52 1
  127   119    52 1
  128   120    52 1
  129   121    51 1
  130   122    50 1
  131   123    50 1
  132   124    49 1
  133   125    49 1
  134   126    48 1
  135   127    48 1
  136   128    43 1
  137   129    43 1
  138   130    43 1
  139   131    39 1
  140   132    32 1
  141   133    31 1
  142   134    61 1
  143   135    56 1
  144   136    24 1
  145   137    24 1
  146   139   138 1
  147   140   139 1
  148   141   140 1
  149   142   140 1
  150   143   142 1
  151   144   138 1
  152   144   143 1
  153   145   144 1
  154   146   145 1
  155   147   146 1
  156   148   147 1
  157   149   148 1
  158   150   149 1
  159   151   150 1
  160   152   151 1
  161   153   152 1
  162   154   138 1
  163   155   138 1
  164   156   143 1
  165   157   147 1
  166   158   151 1
  167   160   159 1
  168   161   160 1
  169   162   161 1
  170   163   161 1
  171   164   163 1
  172   165   159 1
  173   165   164 1
  174   166   165 1
  175   167   166 1
  176   168   167 1
  177   169   168 1
  178   170   169 1
  179   171   170 1
  180   172   171 1
  181   173   172 1
  182   174   153 1
  183   174   173 1
  184   175   159 1
  185   176   159 1
  186   177   164 1
  187   178   168 1
  188   179   172 1
  189   180   179 1
  190   181   179 1
  191   182   179 1
  192   183   178 1
  193   184   178 1
  194   185   178 1
  195   186   177 1
  196   187   177 1
  197   188   177 1
  198   189   176 1
  199   190   176 1
  200   191   176 1
  201   192   175 1
  202   193   175 1
  203   194   175 1
  204   195   160 1
  205   196   160 1
  206   197   158 1
  207   198   158 1
  208   199   158 1
  209   200   157 1
  210   201   157 1
  211   202   157 1
  212   203   156 1
  213   204   156 1
  214   205   156 1
  215   206   155 1
  216   207   155 1
  217   208   155 1
  218   209   154 1
  219   210   154 1
  220   211   154 1
  221   212   141 1
  222   213   146 1
  223   214   145 1
  224   215   142 1
  225   216   142 1
  226   217   174 1
  227   218   173 1
  228   219   171 1
  229   220   170 1
  230   221   169 1
  231   222   140 1
  232   223   167 1
  233   224   166 1
  234   225   165 1
  235   226   163 1
  236   227   161 1
  237   228   139 1
  238   229   139 1
  239   230   153 1
  240   231   152 1
  241   232   150 1
  242   233   149 1
  243   234   148 1
  244   235   162 1
  245   65    153 1
  246   65    174 1
@<TRIPOS>SUBSTRUCTURE
      1 CLA               1 ****               0 ****  **** 
      2 LUT             138 ****               0 ****  **** 
