@<TRIPOS>MOLECULE
Cpptraj generated mol2 file.
  235   246     2     0     0
SMALL
USER_CHARGES


@<TRIPOS>ATOM
      1 CAA        79.7130   58.3706   34.7414 a2         1 CLA     -0.055900
      2 CAB        79.8996   62.2789   43.6417 c8         1 CLA     -0.148500
      3 CAC        72.9811   58.0603   43.2481 a2         1 CLA     -0.012600
      4 CAD        75.8139   55.6319   35.8337 ck         1 CLA      0.398800
      5 NA         78.8414   58.7280   38.1630 ns         1 CLA     -0.225500
      6 CBA        80.8470   58.1978   33.7231 a2         1 CLA     -0.135000
      7 CBB        81.0638   62.6048   44.1939 c0         1 CLA     -0.395200
      8 CBC        73.1795   56.5624   43.4759 a3         1 CLA     -0.037700
      9 CBD        77.3524   56.0649   35.7829 a1         1 CLA     -0.053900
     10 NB         78.7014   60.3817   40.6509 nm         1 CLA     -0.295700
     11 OBD        75.2226   54.8871   35.0264 o2         1 CLA     -0.494600
     12 CGA        81.2935   56.7615   33.4342 c4         1 CLA      0.827000
     13 CGD        78.2863   54.8465   35.8894 c4         1 CLA      0.655300
     14 ND         76.0274   57.7276   38.6930 nm         1 CLA     -0.291600
     15 CED        79.1586   53.2005   37.4873 a3         1 CLA      0.005400
     16 CHA        77.5874   57.1338   36.8372 cs         1 CLA     -0.123800
     17 CHB        80.5370   60.2889   39.0844 aa         1 CLA     -0.291900
     18 CHC        77.3308   60.6126   42.6915 aa         1 CLA     -0.090400
     19 CHD        74.1236   57.6518   40.2550 aa         1 CLA     -0.052000
     20 CMA        82.2308   58.2423   37.2529 a3         1 CLA     -0.230700
     21 CMB        81.8199   62.2911   41.0274 a3         1 CLA     -0.180800
     22 CMC        75.0440   60.0646   44.8316 a3         1 CLA     -0.134000
     23 CMD        72.9873   55.6371   37.9543 a3         1 CLA     -0.141100
     24 C1         82.2686   54.8137   34.3371 a2         1 CLA      0.023000
     25 C1A        78.6529   57.9420   37.0506 ac         1 CLA     -0.015100
     26 C1B        79.9154   60.8042   40.2312 cr         1 CLA      0.054700
     27 C1C        76.2315   59.7842   42.4893 cn         1 CLA     -0.005600
     28 C1D        74.7483   57.2578   39.0378 ap         1 CLA     -0.047300
     29 O1A        81.0912   56.1522   32.4229 o2         1 CLA     -0.610800
     30 O1D        79.2024   54.5778   35.1514 o2         1 CLA     -0.558200
     31 C2         82.9981   54.3783   35.5634 c8         1 CLA     -0.325100
     32 C2A        79.9151   57.9456   36.1792 a1         1 CLA      0.098600
     33 C2B        80.5235   61.5962   41.1852 cb         1 CLA      0.088500
     34 C2C        75.1503   59.4985   43.4291 cb         1 CLA      0.053700
     35 C2D        74.2467   56.3782   37.9407 cb         1 CLA      0.058900
     36 O2A        81.9329   56.2454   34.5027 o1         1 CLA     -0.437200
     37 O2D        78.0768   54.1877   37.0886 o1         1 CLA     -0.357600
     38 C3         84.1596   53.6629   35.6450 c5         1 CLA      0.031200
     39 C3A        80.8925   58.9020   36.9110 a1         1 CLA      0.166800
     40 C3B        79.6982   61.5779   42.3372 cb         1 CLA      0.035000
     41 C3C        74.1792   58.7083   42.6334 cb         1 CLA     -0.089900
     42 C3D        75.3463   56.2465   37.0694 cb         1 CLA     -0.035900
     43 C4         84.2335   52.2170   35.3893 a3         1 CLA     -0.053300
     44 C4A        80.0303   59.3361   38.1962 ac         1 CLA      0.001800
     45 C4B        78.5110   60.8273   41.9034 cn         1 CLA     -0.020900
     46 C4C        74.7359   58.4390   41.3211 cr         1 CLA     -0.044400
     47 C4D        76.4061   57.0442   37.5990 c6         1 CLA     -0.046000
     48 C5         85.5125   54.3706   36.1234 a2         1 CLA     -0.070400
     49 C6         85.2372   55.3977   37.2523 a2         1 CLA      0.043900
     50 C7         86.5171   56.0162   37.9023 a2         1 CLA     -0.150000
     51 C8         86.3176   56.7261   39.2664 a1         1 CLA      0.064200
     52 C9         85.5986   58.0803   39.0408 a3         1 CLA     -0.259300
     53 C10        87.5832   56.8619   40.2149 a2         1 CLA     -0.071900
     54 C11        87.3335   57.6846   41.5194 a2         1 CLA      0.014500
     55 C12        88.3877   57.4713   42.5701 a2         1 CLA     -0.112100
     56 C13        88.1593   58.1153   43.9535 a1         1 CLA      0.089200
     57 C14        89.5680   58.2322   44.5802 a3         1 CLA     -0.239100
     58 C15        87.1275   57.2780   44.8541 a2         1 CLA     -0.102200
     59 C16        86.8542   57.7412   46.2583 a2         1 CLA      0.023900
     60 C17        85.8242   56.8385   47.0143 a2         1 CLA     -0.105700
     61 C18        85.4730   57.1424   48.5156 a1         1 CLA      0.206800
     62 C19        84.3451   56.2202   49.0868 a3         1 CLA     -0.280100
     63 C20        86.6898   57.2788   49.5000 a3         1 CLA     -0.280100
     64 NC         75.9954   59.1317   41.2885 nx         1 CLA     -0.309200
     65 MG         77.3765   59.1879   39.5661 mg         1 CLA      0.895000
     66 HMD3       72.1943   56.3060   38.2534 dc         1 CLA      0.064300
     67 HMD2       72.8027   54.9827   37.1358 dc         1 CLA      0.064300
     68 HMD1       73.1978   55.0197   38.8109 dc         1 CLA      0.064300
     69 HMC3       76.0227   60.2726   45.1713 dc         1 CLA      0.052100
     70 HMC2       74.3634   60.9089   44.8116 dc         1 CLA      0.052100
     71 HMC1       74.4364   59.2975   45.3508 dc         1 CLA      0.052100
     72 HMB3       82.0045   62.6519   40.0055 dc         1 CLA      0.063600
     73 HMB2       81.7473   63.2359   41.6387 dc         1 CLA      0.063600
     74 HMB1       82.7002   61.6095   41.2459 dc         1 CLA      0.063600
     75 HMA3       82.9460   58.1698   36.4429 dc         1 CLA      0.058300
     76 HMA2       82.7440   58.8591   37.9294 dc         1 CLA      0.058300
     77 HMA1       82.0941   57.2296   37.6487 dc         1 CLA      0.058300
     78 HED3       80.0978   53.6871   37.4555 dc         1 CLA      0.079300
     79 HED2       78.9307   52.7315   38.4599 dc         1 CLA      0.079300
     80 HED1       79.0846   52.3777   36.7329 dc         1 CLA      0.079300
     81 HBC3       74.2055   56.4329   43.8614 dc         1 CLA      0.016300
     82 HBC2       72.4649   56.2175   44.2744 dc         1 CLA      0.016300
     83 HBC1       73.2123   56.0351   42.5126 dc         1 CLA      0.016300
     84 HBB2       81.0428   63.0917   45.1804 da         1 CLA      0.183000
     85 HBB1       82.0939   62.4652   43.7694 da         1 CLA      0.183000
     86 HBA2       80.4105   58.4351   32.7690 dc         1 CLA      0.029400
     87 HBA1       81.6752   58.8629   33.8827 dc         1 CLA      0.029400
     88 HAC2       72.8079   58.6180   44.1621 dc         1 CLA      0.029300
     89 HAC1       72.1825   58.2181   42.6102 dc         1 CLA      0.029300
     90 HAA2       78.9879   57.7347   34.3386 dc         1 CLA      0.028700
     91 HAA1       79.2718   59.3816   34.5517 dc         1 CLA      0.028700
     92 H203       86.2627   57.7873   50.3787 dc         1 CLA      0.065600
     93 H202       87.2932   56.3470   49.6070 dc         1 CLA      0.065600
     94 H201       87.4484   57.9697   49.1208 dc         1 CLA      0.065600
     95 H193       84.0471   56.4828   50.1232 dc         1 CLA      0.065600
     96 H192       83.4498   56.2806   48.4455 dc         1 CLA      0.065600
     97 H191       84.7293   55.2415   48.9798 dc         1 CLA      0.065600
     98 H172       84.9189   57.0198   46.4769 dc         1 CLA      0.027600
     99 H171       86.1473   55.8289   46.9894 dc         1 CLA      0.027600
    100 H162       87.8241   57.7939   46.7180 dc         1 CLA      0.002900
    101 H161       86.4919   58.8034   46.1934 dc         1 CLA      0.002900
    102 H152       86.2275   57.3920   44.2344 dc         1 CLA      0.029100
    103 H151       87.3748   56.2029   44.7864 dc         1 CLA      0.029100
    104 H143       89.5780   58.8090   45.5201 dc         1 CLA      0.063600
    105 H142       90.0188   57.3337   44.8860 dc         1 CLA      0.063600
    106 H141       90.3624   58.7004   44.0004 dc         1 CLA      0.063600
    107 H122       88.6553   56.4294   42.5422 dc         1 CLA      0.032500
    108 H121       89.2544   57.9143   42.1093 dc         1 CLA      0.032500
    109 H112       87.2858   58.7361   41.2263 dc         1 CLA      0.006600
    110 H111       86.3402   57.3976   41.8437 dc         1 CLA      0.006600
    111 H102       87.9041   55.8355   40.3768 dc         1 CLA      0.024100
    112 H101       88.3776   57.3336   39.6870 dc         1 CLA      0.024100
    113 HHD        73.1062   57.3482   40.4206 da         1 CLA      0.174300
    114 HHC        77.3325   61.1257   43.6461 da         1 CLA      0.136800
    115 HHB        81.4903   60.7965   38.9423 da         1 CLA      0.138300
    116 HBD        77.3733   56.4411   34.7584 dc         1 CLA      0.107700
    117 HAB        79.0014   62.5067   44.1995 da         1 CLA      0.155200
    118 H93        84.5830   57.9054   38.6186 dc         1 CLA      0.069500
    119 H92        85.4305   58.6127   39.9397 dc         1 CLA      0.069500
    120 H91        86.1493   58.7104   38.3697 dc         1 CLA      0.069500
    121 H8         85.7115   56.0861   39.9233 dc         1 CLA      0.029300
    122 H72        87.2895   55.2355   38.0133 dc         1 CLA      0.044400
    123 H71        86.8553   56.7089   37.1523 dc         1 CLA      0.044400
    124 H62        84.4884   56.1497   36.9229 dc         1 CLA      0.015600
    125 H61        84.7075   54.9550   38.1107 dc         1 CLA      0.015600
    126 H52        86.3596   53.7086   36.4453 dc         1 CLA      0.033200
    127 H51        85.8212   54.8940   35.2004 dc         1 CLA      0.033200
    128 H43        84.7390   52.0398   34.4251 dc         1 CLA      0.037000
    129 H42        84.7537   51.7105   36.1861 dc         1 CLA      0.037000
    130 H41        83.2464   51.7063   35.4405 dc         1 CLA      0.037000
    131 H3A        81.0539   59.8082   36.3011 dc         1 CLA      0.041100
    132 H2A        80.2838   56.9417   36.1768 dc         1 CLA      0.083100
    133 H2         82.4783   54.4823   36.5492 da         1 CLA      0.180900
    134 H18        84.9383   58.1131   48.4404 dc         1 CLA     -0.003900
    135 H13        87.7389   59.0800   43.8510 dc         1 CLA      0.019700
    136 H12        81.4135   54.1701   34.3632 dc         1 CLA      0.120400
    137 H11        82.9405   54.5803   33.4950 dc         1 CLA      0.120400
    138 C1         68.9431   61.8834   50.7254 Z1         2 LUT      0.509236
    139 C2         68.9177   63.1689   51.5343 Z2         2 LUT     -0.434695
    140 C3         67.7066   64.0895   51.3757 Z3         2 LUT      0.437453
    141 O3         68.2573   65.3297   51.7457 S1         2 LUT     -0.547129
    142 C4         67.1013   64.0292   49.9929 Z4         2 LUT     -0.468603
    143 C5         67.7807   63.3193   48.8842 Z5         2 LUT      0.279246
    144 C6         68.6241   62.2522   49.1840 Z6         2 LUT     -0.305473
    145 C7         69.6072   61.7276   48.1746 Z7         2 LUT      0.069402
    146 C8         70.4532   62.4769   47.3886 Z8         2 LUT     -0.191631
    147 C9         71.2850   62.1235   46.2330 Z9         2 LUT      0.196698
    148 C10        72.0784   63.0445   45.5718 Y1         2 LUT     -0.208611
    149 C11        72.7756   62.8809   44.2932 Y2         2 LUT      0.030784
    150 C12        73.8518   63.6188   43.9406 Y3         2 LUT     -0.220316
    151 C13        74.8005   63.5961   42.8290 Y4         2 LUT      0.215937
    152 C14        75.9475   64.4258   42.8427 Y5         2 LUT     -0.185793
    153 C15        77.0409   64.3555   41.9202 Y6         2 LUT     -0.057835
    154 C16        67.9133   60.9663   51.3606 Y7         2 LUT     -0.405615
    155 C17        70.2869   61.2611   50.9813 Y7         2 LUT     -0.405615
    156 C18        67.6529   63.9775   47.6309 Y9         2 LUT     -0.369639
    157 C19        70.9625   60.7203   45.7473 W1         2 LUT     -0.333362
    158 C20        74.3960   62.7348   41.6762 W2         2 LUT     -0.323439
    159 C21        88.5872   65.8298   35.9536 Z1         2 LUT      0.406104
    160 C22        89.1220   65.0534   34.7376 Z2         2 LUT     -0.404965
    161 C23        89.2071   65.8993   33.5242 Z3         2 LUT      0.391255
    162 O23        89.3836   64.9191   32.5327 S1         2 LUT     -0.528210
    163 C24        87.9276   66.6550   33.3148 W6         2 LUT     -0.258361
    164 C25        86.9132   66.8720   34.2111 Z5         2 LUT      0.133546
    165 C26        87.0977   66.2982   35.6508 W8         2 LUT     -0.147008
    166 C27        86.5121   67.2171   36.7913 Z7         2 LUT      0.023843
    167 C28        85.1896   67.2801   37.0680 Z8         2 LUT     -0.216987
    168 C29        84.5355   67.5566   38.4236 Z9         2 LUT      0.206524
    169 C30        83.3845   66.8958   38.7606 Y1         2 LUT     -0.215556
    170 C31        82.5954   66.7756   39.9711 Y2         2 LUT      0.025142
    171 C32        81.4318   66.0779   40.0776 Y3         2 LUT     -0.212209
    172 C33        80.5208   65.8677   41.2595 Y4         2 LUT      0.240937
    173 C34        79.3639   65.1392   41.1093 Y5         2 LUT     -0.218862
    174 C35        78.2446   65.0558   42.0497 Y6         2 LUT     -0.023547
    175 C36        89.7824   66.7251   36.4576 Y7         2 LUT     -0.393485
    176 C37        88.3951   64.5414   36.8888 Y7         2 LUT     -0.393485
    177 C38        85.6393   67.6982   33.8951 Y9         2 LUT     -0.387526
    178 C39        85.1356   68.6195   39.2623 W1         2 LUT     -0.322618
    179 C40        80.9803   66.5832   42.5750 W2         2 LUT     -0.358472
    180 H403       81.9864   66.2544   42.7766 R7         2 LUT      0.097720
    181 H402       81.0025   67.6800   42.4873 R7         2 LUT      0.097720
    182 H401       80.3945   66.3931   43.4862 R7         2 LUT      0.097720
    183 H393       85.9470   68.3008   39.9692 R4         2 LUT      0.082505
    184 H392       85.7405   69.2387   38.5190 R4         2 LUT      0.082505
    185 H391       84.4849   69.2489   39.8247 R4         2 LUT      0.082505
    186 H383       85.7037   68.1294   32.8761 R1         2 LUT      0.104030
    187 H382       84.8354   67.0601   33.9264 R1         2 LUT      0.104030
    188 H381       85.3741   68.5669   34.5161 R1         2 LUT      0.104030
    189 H373       89.3648   63.9145   36.9996 T4         2 LUT      0.089537
    190 H372       87.9390   64.7363   37.9042 T4         2 LUT      0.089537
    191 H371       87.6171   63.8454   36.5043 T4         2 LUT      0.089537
    192 H363       89.8231   67.7504   36.0604 T4         2 LUT      0.089537
    193 H362       89.6333   66.7986   37.5227 T4         2 LUT      0.089537
    194 H361       90.7772   66.2259   36.2859 T4         2 LUT      0.089537
    195 H222       89.9943   64.4667   34.9887 U2         2 LUT      0.127376
    196 H221       88.4110   64.2419   34.4874 U2         2 LUT      0.127376
    197 H203       73.6027   63.1767   41.0392 R7         2 LUT      0.087068
    198 H202       75.2029   62.3408   41.0407 R7         2 LUT      0.087068
    199 H201       73.9551   61.8170   42.0608 R7         2 LUT      0.087068
    200 H193       71.1945   60.0810   46.5784 R4         2 LUT      0.089716
    201 H192       69.9190   60.6521   45.4919 R4         2 LUT      0.089716
    202 H191       71.5075   60.3258   44.8979 R4         2 LUT      0.089716
    203 H183       68.3438   64.7970   47.6558 R1         2 LUT      0.094572
    204 H182       67.9682   63.3800   46.7957 R1         2 LUT      0.094572
    205 H181       66.6602   64.4597   47.6070 R1         2 LUT      0.094572
    206 H173       71.0905   61.8540   50.5933 T4         2 LUT      0.093752
    207 H172       70.5494   61.1538   52.0741 T4         2 LUT      0.093752
    208 H171       70.3450   60.3269   50.4593 T4         2 LUT      0.093752
    209 H163       67.9775   59.9533   51.1004 T4         2 LUT      0.093752
    210 H162       67.9513   60.9616   52.4613 T4         2 LUT      0.093752
    211 H161       66.9317   61.3479   51.0276 T4         2 LUT      0.093752
    212 HO3        67.5935   65.8487   52.2661 Q1         2 LUT      0.300121
    213 H8         70.4452   63.5312   47.5546 U7         2 LUT      0.080784
    214 H7         69.5741   60.6970   48.0483 U6         2 LUT      0.042190
    215 H42        66.1487   63.5181   50.0941 U5         2 LUT      0.145166
    216 H41        66.8381   65.0244   49.7000 U5         2 LUT      0.145166
    217 H35        78.1793   65.6588   43.0215 T3         2 LUT      0.077919
    218 H34        79.2113   64.6699   40.1480 T2         2 LUT      0.073626
    219 H32        80.9648   65.5359   39.1765 T1         2 LUT      0.092510
    220 H31        82.9719   67.3104   40.8294 U9         2 LUT      0.070048
    221 H30        83.1082   66.1918   38.0115 U8         2 LUT      0.085442
    222 H3         67.0153   63.6218   52.0742 U3         2 LUT     -0.031596
    223 H28        84.6203   66.7162   36.4249 U7         2 LUT      0.084728
    224 H27        87.1276   67.4498   37.6918 U6         2 LUT      0.087291
    225 H26        86.4672   65.4058   35.6180 Q6         2 LUT      0.075325
    226 H24        87.7682   66.9693   32.2371 Q5         2 LUT      0.094482
    227 H23        90.0209   66.6656   33.5249 U3         2 LUT     -0.024869
    228 H22        69.0665   63.0294   52.6041 U2         2 LUT      0.127376
    229 H21        69.8150   63.7128   51.2109 U2         2 LUT      0.127376
    230 H15        76.9832   63.7276   41.0695 T3         2 LUT      0.093200
    231 H14        76.0590   65.1160   43.7266 T2         2 LUT      0.068865
    232 H12        74.1261   64.3781   44.6693 T1         2 LUT      0.095507
    233 H11        72.4864   62.0686   43.6042 U9         2 LUT      0.068930
    234 H10        72.2061   64.0098   46.0234 U8         2 LUT      0.083911
    235 H1         89.9625   65.2546   31.8527 Q1         2 LUT      0.297311
@<TRIPOS>BOND
    1     6     1 1
    2     7     2 1
    3     8     3 1
    4     9     4 1
    5    11     4 1
    6    12     6 1
    7    13     9 1
    8    16     9 1
    9    25     5 1
   10    25    16 1
   11    26    10 1
   12    26    17 1
   13    27    18 1
   14    28    14 1
   15    28    19 1
   16    29    12 1
   17    30    13 1
   18    31    24 1
   19    32     1 1
   20    32    25 1
   21    33    21 1
   22    33    26 1
   23    34    22 1
   24    34    27 1
   25    35    23 1
   26    35    28 1
   27    36    12 1
   28    36    24 1
   29    37    13 1
   30    37    15 1
   31    38    31 1
   32    39    20 1
   33    39    32 1
   34    40     2 1
   35    40    33 1
   36    41     3 1
   37    41    34 1
   38    42     4 1
   39    42    35 1
   40    43    38 1
   41    44     5 1
   42    44    17 1
   43    44    39 1
   44    45    10 1
   45    45    18 1
   46    45    40 1
   47    46    19 1
   48    46    41 1
   49    47    14 1
   50    47    16 1
   51    47    42 1
   52    48    38 1
   53    49    48 1
   54    50    49 1
   55    51    50 1
   56    52    51 1
   57    53    51 1
   58    54    53 1
   59    55    54 1
   60    56    55 1
   61    57    56 1
   62    58    56 1
   63    59    58 1
   64    60    59 1
   65    61    60 1
   66    62    61 1
   67    63    61 1
   68    64    27 1
   69    64    46 1
   70    65     5 1
   71    65    10 1
   72    65    64 1
   73    65    14 1
   74    66    23 1
   75    67    23 1
   76    68    23 1
   77    69    22 1
   78    70    22 1
   79    71    22 1
   80    72    21 1
   81    73    21 1
   82    74    21 1
   83    75    20 1
   84    76    20 1
   85    77    20 1
   86    78    15 1
   87    79    15 1
   88    80    15 1
   89    81     8 1
   90    82     8 1
   91    83     8 1
   92    84     7 1
   93    85     7 1
   94    86     6 1
   95    87     6 1
   96    88     3 1
   97    89     3 1
   98    90     1 1
   99    91     1 1
  100    92    63 1
  101    93    63 1
  102    94    63 1
  103    95    62 1
  104    96    62 1
  105    97    62 1
  106    98    60 1
  107    99    60 1
  108   100    59 1
  109   101    59 1
  110   102    58 1
  111   103    58 1
  112   104    57 1
  113   105    57 1
  114   106    57 1
  115   107    55 1
  116   108    55 1
  117   109    54 1
  118   110    54 1
  119   111    53 1
  120   112    53 1
  121   113    19 1
  122   114    18 1
  123   115    17 1
  124   116     9 1
  125   117     2 1
  126   118    52 1
  127   119    52 1
  128   120    52 1
  129   121    51 1
  130   122    50 1
  131   123    50 1
  132   124    49 1
  133   125    49 1
  134   126    48 1
  135   127    48 1
  136   128    43 1
  137   129    43 1
  138   130    43 1
  139   131    39 1
  140   132    32 1
  141   133    31 1
  142   134    61 1
  143   135    56 1
  144   136    24 1
  145   137    24 1
  146   139   138 1
  147   140   139 1
  148   141   140 1
  149   142   140 1
  150   143   142 1
  151   144   138 1
  152   144   143 1
  153   145   144 1
  154   146   145 1
  155   147   146 1
  156   148   147 1
  157   149   148 1
  158   150   149 1
  159   151   150 1
  160   152   151 1
  161   153   152 1
  162   154   138 1
  163   155   138 1
  164   156   143 1
  165   157   147 1
  166   158   151 1
  167   160   159 1
  168   161   160 1
  169   162   161 1
  170   163   161 1
  171   164   163 1
  172   165   159 1
  173   165   164 1
  174   166   165 1
  175   167   166 1
  176   168   167 1
  177   169   168 1
  178   170   169 1
  179   171   170 1
  180   172   171 1
  181   173   172 1
  182   174   153 1
  183   174   173 1
  184   175   159 1
  185   176   159 1
  186   177   164 1
  187   178   168 1
  188   179   172 1
  189   180   179 1
  190   181   179 1
  191   182   179 1
  192   183   178 1
  193   184   178 1
  194   185   178 1
  195   186   177 1
  196   187   177 1
  197   188   177 1
  198   189   176 1
  199   190   176 1
  200   191   176 1
  201   192   175 1
  202   193   175 1
  203   194   175 1
  204   195   160 1
  205   196   160 1
  206   197   158 1
  207   198   158 1
  208   199   158 1
  209   200   157 1
  210   201   157 1
  211   202   157 1
  212   203   156 1
  213   204   156 1
  214   205   156 1
  215   206   155 1
  216   207   155 1
  217   208   155 1
  218   209   154 1
  219   210   154 1
  220   211   154 1
  221   212   141 1
  222   213   146 1
  223   214   145 1
  224   215   142 1
  225   216   142 1
  226   217   174 1
  227   218   173 1
  228   219   171 1
  229   220   170 1
  230   221   169 1
  231   222   140 1
  232   223   167 1
  233   224   166 1
  234   225   165 1
  235   226   163 1
  236   227   161 1
  237   228   139 1
  238   229   139 1
  239   230   153 1
  240   231   152 1
  241   232   150 1
  242   233   149 1
  243   234   148 1
  244   235   162 1
  245   65    153 1
  246   65    174 1
@<TRIPOS>SUBSTRUCTURE
      1 CLA               1 ****               0 ****  **** 
      2 LUT             138 ****               0 ****  **** 
