@<TRIPOS>MOLECULE
Cpptraj generated mol2 file.
  235   246     2     0     0
SMALL
USER_CHARGES


@<TRIPOS>ATOM
      1 CAA        80.4518   58.8213   34.0918 a2         1 CLA     -0.055900
      2 CAB        79.5322   62.0020   43.3718 c8         1 CLA     -0.148500
      3 CAC        72.8695   57.7937   42.0290 a2         1 CLA     -0.012600
      4 CAD        76.3502   55.7787   34.8890 ck         1 CLA      0.398800
      5 NA         79.1335   58.9181   37.4029 ns         1 CLA     -0.225500
      6 CBA        81.6506   58.8340   33.1748 a2         1 CLA     -0.135000
      7 CBB        80.6148   62.0379   44.1904 c0         1 CLA     -0.395200
      8 CBC        72.8235   56.2767   42.2010 a3         1 CLA     -0.037700
      9 CBD        77.7334   56.5449   34.6832 a1         1 CLA     -0.053900
     10 NB         78.7233   60.3651   40.0976 nm         1 CLA     -0.295700
     11 OBD        75.8838   54.9252   34.1110 o2         1 CLA     -0.494600
     12 CGA        82.1697   57.5265   32.7096 c4         1 CLA      0.827000
     13 CGD        78.8415   55.5646   34.2404 c4         1 CLA      0.655300
     14 ND         76.3954   57.7324   37.7857 nm         1 CLA     -0.291600
     15 CED        79.6483   53.3255   34.6825 a3         1 CLA      0.005400
     16 CHA        78.0236   57.3394   35.8829 cs         1 CLA     -0.123800
     17 CHB        80.7323   60.3988   38.6839 aa         1 CLA     -0.291900
     18 CHC        77.2857   60.2676   42.0344 aa         1 CLA     -0.090400
     19 CHD        74.3977   57.5329   39.2143 aa         1 CLA     -0.052000
     20 CMA        82.6296   58.3672   37.1481 a3         1 CLA     -0.230700
     21 CMB        81.9668   61.9724   41.0688 a3         1 CLA     -0.180800
     22 CMC        74.7396   59.5780   43.8070 a3         1 CLA     -0.134000
     23 CMD        73.7023   55.3394   36.9576 a3         1 CLA     -0.141100
     24 C1         83.8290   55.6995   33.3715 a2         1 CLA      0.023000
     25 C1A        79.1545   58.0662   36.2685 ac         1 CLA     -0.015100
     26 C1B        80.0256   60.7586   39.8453 cr         1 CLA      0.054700
     27 C1C        76.2294   59.4632   41.6093 cn         1 CLA     -0.005600
     28 C1D        75.1321   57.2144   38.0478 ap         1 CLA     -0.047300
     29 O1A        82.0955   57.1066   31.5143 o2         1 CLA     -0.610800
     30 O1D        79.8522   55.7743   33.5762 o2         1 CLA     -0.558200
     31 C2         84.1353   55.2122   34.7313 c8         1 CLA     -0.325100
     32 C2A        80.5449   58.1517   35.5788 a1         1 CLA      0.098600
     33 C2B        80.5440   61.4709   40.9708 cb         1 CLA      0.088500
     34 C2C        75.0066   59.2178   42.3918 cb         1 CLA      0.053700
     35 C2D        74.8474   56.2495   37.0591 cb         1 CLA      0.058900
     36 O2A        82.8981   56.8419   33.6390 o1         1 CLA     -0.437200
     37 O2D        78.6579   54.4118   35.0126 o1         1 CLA     -0.357600
     38 C3         84.8448   54.0957   35.1306 c5         1 CLA      0.031200
     39 C3A        81.3339   59.0219   36.5380 a1         1 CLA      0.166800
     40 C3B        79.5272   61.4219   41.9622 cb         1 CLA      0.035000
     41 C3C        74.2253   58.4078   41.6097 cb         1 CLA     -0.089900
     42 C3D        75.8298   56.3445   36.1151 cb         1 CLA     -0.035900
     43 C4         84.2159   52.6759   35.4471 a3         1 CLA     -0.053300
     44 C4A        80.3273   59.5564   37.5645 ac         1 CLA      0.001800
     45 C4B        78.4629   60.6473   41.3921 cn         1 CLA     -0.020900
     46 C4C        74.8353   58.2935   40.3131 cr         1 CLA     -0.044400
     47 C4D        76.8138   57.2228   36.6284 c6         1 CLA     -0.046000
     48 C5         86.3639   54.2294   35.4340 a2         1 CLA     -0.070400
     49 C6         86.8643   55.4993   36.1336 a2         1 CLA      0.043900
     50 C7         86.3224   55.6226   37.5766 a2         1 CLA     -0.150000
     51 C8         86.6679   56.9246   38.4358 a1         1 CLA      0.064200
     52 C9         88.0514   57.6184   38.0290 a3         1 CLA     -0.259300
     53 C10        86.7055   56.5548   39.9235 a2         1 CLA     -0.071900
     54 C11        87.0074   57.6716   40.9270 a2         1 CLA      0.014500
     55 C12        86.9319   57.0641   42.3777 a2         1 CLA     -0.112100
     56 C13        87.3070   58.0523   43.5047 a1         1 CLA      0.089200
     57 C14        88.8700   58.4807   43.4971 a3         1 CLA     -0.239100
     58 C15        87.0354   57.4667   44.9629 a2         1 CLA     -0.102200
     59 C16        85.5995   57.1721   45.4495 a2         1 CLA      0.023900
     60 C17        84.8243   58.4600   45.7938 a2         1 CLA     -0.105700
     61 C18        83.3066   58.2370   46.0504 a1         1 CLA      0.206800
     62 C19        82.9160   57.1855   47.1056 a3         1 CLA     -0.280100
     63 C20        82.5141   59.5613   46.1435 a3         1 CLA     -0.280100
     64 NC         76.0194   59.0860   40.3118 nx         1 CLA     -0.309200
     65 MG         77.4797   59.1024   38.8775 mg         1 CLA      0.895000
     66 HMD3       72.7950   55.9665   36.7633 dc         1 CLA      0.064300
     67 HMD2       73.7067   54.5053   36.2188 dc         1 CLA      0.064300
     68 HMD1       73.5290   54.9207   37.9358 dc         1 CLA      0.064300
     69 HMC3       75.4098   60.3703   44.0595 dc         1 CLA      0.052100
     70 HMC2       73.7800   59.9065   43.9212 dc         1 CLA      0.052100
     71 HMC1       74.7719   58.5582   44.3233 dc         1 CLA      0.052100
     72 HMB3       82.3438   60.9847   41.3903 dc         1 CLA      0.063600
     73 HMB2       82.3688   62.2129   40.0825 dc         1 CLA      0.063600
     74 HMB1       82.2412   62.7373   41.8395 dc         1 CLA      0.063600
     75 HMA3       82.4243   57.5304   37.7878 dc         1 CLA      0.058300
     76 HMA2       83.1568   57.8825   36.2848 dc         1 CLA      0.058300
     77 HMA1       83.2644   59.0739   37.7030 dc         1 CLA      0.058300
     78 HED3       79.5744   52.4551   35.2524 dc         1 CLA      0.079300
     79 HED2       79.5994   53.1155   33.6458 dc         1 CLA      0.079300
     80 HED1       80.6421   53.6805   34.8898 dc         1 CLA      0.079300
     81 HBC3       71.9435   55.8784   42.6529 dc         1 CLA      0.016300
     82 HBC2       72.8894   55.7060   41.2800 dc         1 CLA      0.016300
     83 HBC1       73.5583   56.0588   42.8832 dc         1 CLA      0.016300
     84 HBB2       80.6328   62.3791   45.1842 da         1 CLA      0.183000
     85 HBB1       81.6402   61.8046   43.8631 da         1 CLA      0.183000
     86 HBA2       81.3173   59.3669   32.2568 dc         1 CLA      0.029400
     87 HBA1       82.3940   59.4128   33.5904 dc         1 CLA      0.029400
     88 HAC2       72.4670   58.3091   42.9199 dc         1 CLA      0.029300
     89 HAC1       72.2117   57.9781   41.1594 dc         1 CLA      0.029300
     90 HAA2       79.6384   58.4775   33.4568 dc         1 CLA      0.028700
     91 HAA1       80.0947   59.8033   34.2921 dc         1 CLA      0.028700
     92 H203       81.4274   59.3800   46.3112 dc         1 CLA      0.065600
     93 H202       82.8049   60.2275   46.9304 dc         1 CLA      0.065600
     94 H201       82.6159   60.2263   45.3679 dc         1 CLA      0.065600
     95 H193       81.8145   57.2548   47.1678 dc         1 CLA      0.065600
     96 H192       83.2162   56.1427   46.9136 dc         1 CLA      0.065600
     97 H191       83.2595   57.6316   48.0134 dc         1 CLA      0.065600
     98 H172       85.3003   58.8965   46.5973 dc         1 CLA      0.027600
     99 H171       84.8816   59.0590   44.9361 dc         1 CLA      0.027600
    100 H162       85.0141   56.6896   44.7247 dc         1 CLA      0.002900
    101 H161       85.5981   56.5243   46.3727 dc         1 CLA      0.002900
    102 H152       87.5926   56.5837   45.0229 dc         1 CLA      0.029100
    103 H151       87.5311   58.0115   45.7572 dc         1 CLA      0.029100
    104 H143       89.1626   59.0661   44.3851 dc         1 CLA      0.063600
    105 H142       89.4352   57.6128   43.3671 dc         1 CLA      0.063600
    106 H141       89.0452   59.0667   42.5337 dc         1 CLA      0.063600
    107 H122       85.8863   56.8027   42.4011 dc         1 CLA      0.032500
    108 H121       87.5163   56.1594   42.3965 dc         1 CLA      0.032500
    109 H112       88.0213   57.9904   40.7870 dc         1 CLA      0.006600
    110 H111       86.3904   58.5463   40.7857 dc         1 CLA      0.006600
    111 H102       85.6901   56.1963   40.1695 dc         1 CLA      0.024100
    112 H101       87.4469   55.8294   40.1638 dc         1 CLA      0.024100
    113 HHD        73.4655   57.0018   39.3476 da         1 CLA      0.174300
    114 HHC        77.1996   60.7384   43.0213 da         1 CLA      0.136800
    115 HHB        81.8059   60.6860   38.6373 da         1 CLA      0.138300
    116 HBD        77.5594   57.2608   33.9328 dc         1 CLA      0.107700
    117 HAB        78.6133   62.4401   43.7063 da         1 CLA      0.155200
    118 H93        88.8962   57.0093   38.3228 dc         1 CLA      0.069500
    119 H92        88.1148   57.8072   36.9051 dc         1 CLA      0.069500
    120 H91        88.0136   58.6240   38.4510 dc         1 CLA      0.069500
    121 H8         85.7999   57.6175   38.3417 dc         1 CLA      0.029300
    122 H72        85.2089   55.5507   37.5004 dc         1 CLA      0.044400
    123 H71        86.7695   54.7549   38.1130 dc         1 CLA      0.044400
    124 H62        87.9327   55.3757   36.2548 dc         1 CLA      0.015600
    125 H61        86.6798   56.3556   35.4889 dc         1 CLA      0.015600
    126 H52        86.6811   53.3370   35.9129 dc         1 CLA      0.033200
    127 H51        86.8842   54.2054   34.4586 dc         1 CLA      0.033200
    128 H43        83.1507   52.5477   35.2222 dc         1 CLA      0.037000
    129 H42        84.7658   51.9776   34.8867 dc         1 CLA      0.037000
    130 H41        84.2372   52.5042   36.5083 dc         1 CLA      0.037000
    131 H3A        81.6142   60.0156   36.0564 dc         1 CLA      0.041100
    132 H2A        80.9575   57.1196   35.4305 dc         1 CLA      0.083100
    133 H2         83.6355   55.7665   35.5705 da         1 CLA      0.180900
    134 H18        82.7607   57.7945   45.1777 dc         1 CLA     -0.003900
    135 H13        86.6881   58.9339   43.3648 dc         1 CLA      0.019700
    136 H12        83.3915   54.9733   32.6711 dc         1 CLA      0.120400
    137 H11        84.6525   56.2637   33.0069 dc         1 CLA      0.120400
    138 C1         69.1290   61.3547   49.7392 Z1         2 LUT      0.509236
    139 C2         67.6386   61.3239   50.0719 Z2         2 LUT     -0.434695
    140 C3         67.0260   62.6661   50.5839 Z3         2 LUT      0.437453
    141 O3         67.1729   62.7149   52.0181 S1         2 LUT     -0.547129
    142 C4         67.6236   63.8849   49.9305 Z4         2 LUT     -0.468603
    143 C5         68.4268   63.6365   48.6997 Z5         2 LUT      0.279246
    144 C6         69.1939   62.5063   48.6290 Z6         2 LUT     -0.305473
    145 C7         69.5887   62.1997   47.2536 Z7         2 LUT      0.069402
    146 C8         70.6559   62.6573   46.5728 Z8         2 LUT     -0.191631
    147 C9         71.0700   62.3095   45.1530 Z9         2 LUT      0.196698
    148 C10        72.2382   62.9528   44.7126 Y1         2 LUT     -0.208611
    149 C11        72.9430   62.8568   43.4342 Y2         2 LUT      0.030784
    150 C12        74.1354   63.5536   43.1742 Y3         2 LUT     -0.220316
    151 C13        75.0186   63.6839   42.0367 Y4         2 LUT      0.215937
    152 C14        76.2484   64.2309   42.1444 Y5         2 LUT     -0.185793
    153 C15        77.3482   64.3427   41.2221 Y6         2 LUT     -0.057835
    154 C16        69.5973   60.0140   49.2228 Y7         2 LUT     -0.405615
    155 C17        69.9797   61.7044   50.9730 Y7         2 LUT     -0.405615
    156 C18        67.9897   64.5032   47.5272 Y9         2 LUT     -0.369639
    157 C19        70.2816   61.1838   44.4057 W1         2 LUT     -0.333362
    158 C20        74.4794   62.9643   40.8535 W2         2 LUT     -0.323439
    159 C21        88.5998   65.5935   35.2920 Z1         2 LUT      0.406104
    160 C22        89.3438   65.0032   34.0136 Z2         2 LUT     -0.404965
    161 C23        89.4467   65.9745   32.8690 Z3         2 LUT      0.391255
    162 O23        89.9891   65.2713   31.7360 S1         2 LUT     -0.528210
    163 C24        88.1245   66.6280   32.6360 W6         2 LUT     -0.258361
    164 C25        87.0331   66.5825   33.4935 Z5         2 LUT      0.133546
    165 C26        87.1091   65.9910   34.8876 W8         2 LUT     -0.147008
    166 C27        86.4675   66.8125   36.0135 Z7         2 LUT      0.023843
    167 C28        85.5695   66.2275   36.8835 Z8         2 LUT     -0.216987
    168 C29        85.0217   66.6100   38.1396 Z9         2 LUT      0.206524
    169 C30        83.8154   66.0009   38.5775 Y1         2 LUT     -0.215556
    170 C31        82.9610   66.1485   39.6786 Y2         2 LUT      0.025142
    171 C32        81.8169   65.4614   39.7517 Y3         2 LUT     -0.212209
    172 C33        80.8042   65.6254   40.8239 Y4         2 LUT      0.240937
    173 C34        79.6327   65.0464   40.7142 Y5         2 LUT     -0.218862
    174 C35        78.5268   64.9122   41.6270 Y6         2 LUT     -0.023547
    175 C36        89.5432   66.6885   35.7926 Y7         2 LUT     -0.393485
    176 C37        88.7107   64.3220   36.1666 Y7         2 LUT     -0.393485
    177 C38        85.6925   67.2102   33.0886 Y9         2 LUT     -0.387526
    178 C39        85.6525   67.7402   38.9480 W1         2 LUT     -0.322618
    179 C40        81.2660   66.3156   42.1179 W2         2 LUT     -0.358472
    180 H403       80.5336   66.4836   42.9407 R7         2 LUT      0.097720
    181 H402       82.0631   65.6412   42.4837 R7         2 LUT      0.097720
    182 H401       81.6224   67.3497   41.9331 R7         2 LUT      0.097720
    183 H393       84.9644   68.0792   39.7524 R4         2 LUT      0.082505
    184 H392       86.5654   67.4447   39.4438 R4         2 LUT      0.082505
    185 H391       85.7539   68.6641   38.4036 R4         2 LUT      0.082505
    186 H383       85.5873   66.8819   32.0487 R1         2 LUT      0.104030
    187 H382       84.9193   66.8385   33.7508 R1         2 LUT      0.104030
    188 H381       85.6315   68.3301   33.1066 R1         2 LUT      0.104030
    189 H373       89.6865   63.8119   36.0972 T4         2 LUT      0.089537
    190 H372       88.4944   64.4699   37.2058 T4         2 LUT      0.089537
    191 H371       88.1062   63.4651   35.8074 T4         2 LUT      0.089537
    192 H363       89.6556   67.5693   35.0979 T4         2 LUT      0.089537
    193 H362       89.1778   66.9660   36.7975 T4         2 LUT      0.089537
    194 H361       90.5439   66.2132   35.8861 T4         2 LUT      0.089537
    195 H222       90.3950   64.8353   34.1803 U2         2 LUT      0.127376
    196 H221       88.8780   64.1298   33.6525 U2         2 LUT      0.127376
    197 H203       75.0951   62.9983   39.9760 R7         2 LUT      0.087068
    198 H202       74.3165   61.9074   40.9286 R7         2 LUT      0.087068
    199 H201       73.6315   63.5608   40.4715 R7         2 LUT      0.087068
    200 H193       70.5230   60.1513   44.7319 R4         2 LUT      0.089716
    201 H192       69.1807   61.2240   44.5932 R4         2 LUT      0.089716
    202 H191       70.4544   61.2002   43.3822 R4         2 LUT      0.089716
    203 H183       67.3211   65.3220   47.7340 R1         2 LUT      0.094572
    204 H182       68.8969   64.9820   47.1342 R1         2 LUT      0.094572
    205 H181       67.4982   63.8461   46.7343 R1         2 LUT      0.094572
    206 H173       70.0178   62.7303   51.1669 T4         2 LUT      0.093752
    207 H172       69.4931   61.2044   51.8220 T4         2 LUT      0.093752
    208 H171       71.0405   61.4918   50.8744 T4         2 LUT      0.093752
    209 H163       70.6678   59.9973   49.0492 T4         2 LUT      0.093752
    210 H162       69.5013   59.1251   49.8718 T4         2 LUT      0.093752
    211 H161       69.0229   59.7724   48.3038 T4         2 LUT      0.093752
    212 HO3        66.6658   62.1570   52.5735 Q1         2 LUT      0.300121
    213 H8         71.2296   63.4547   46.9756 U7         2 LUT      0.080784
    214 H7         69.1187   61.3669   46.7536 U6         2 LUT      0.042190
    215 H42        66.8332   64.6245   49.7432 U5         2 LUT      0.145166
    216 H41        68.0527   64.5586   50.6338 U5         2 LUT      0.145166
    217 H35        78.5475   65.3489   42.6658 T3         2 LUT      0.077919
    218 H34        79.5670   64.4998   39.7553 T2         2 LUT      0.073626
    219 H32        81.6305   64.8386   38.8776 T1         2 LUT      0.092510
    220 H31        83.2069   66.8282   40.5022 U9         2 LUT      0.070048
    221 H30        83.4358   65.3135   37.7988 U8         2 LUT      0.085442
    222 H3         65.9778   62.7231   50.3604 U3         2 LUT     -0.031596
    223 H28        85.2477   65.2912   36.4256 U7         2 LUT      0.084728
    224 H27        86.8189   67.8435   36.1354 U6         2 LUT      0.087291
    225 H26        86.6204   65.0612   34.7179 Q6         2 LUT      0.075325
    226 H24        87.9893   67.1880   31.7502 Q5         2 LUT      0.094482
    227 H23        90.0311   66.8188   33.0931 U3         2 LUT     -0.024869
    228 H22        67.0684   61.0780   49.1828 U2         2 LUT      0.127376
    229 H21        67.5038   60.5856   50.8290 U2         2 LUT      0.127376
    230 H15        77.2047   64.0724   40.2100 T3         2 LUT      0.093200
    231 H14        76.4333   64.5229   43.2091 T2         2 LUT      0.068865
    232 H12        74.5589   64.1563   44.0357 T1         2 LUT      0.095507
    233 H11        72.5351   62.2092   42.6879 U9         2 LUT      0.068930
    234 H10        72.6656   63.6776   45.4280 U8         2 LUT      0.083911
    235 H1         89.9284   65.6622   30.8777 Q1         2 LUT      0.297311
@<TRIPOS>BOND
    1     6     1 1
    2     7     2 1
    3     8     3 1
    4     9     4 1
    5    11     4 1
    6    12     6 1
    7    13     9 1
    8    16     9 1
    9    25     5 1
   10    25    16 1
   11    26    10 1
   12    26    17 1
   13    27    18 1
   14    28    14 1
   15    28    19 1
   16    29    12 1
   17    30    13 1
   18    31    24 1
   19    32     1 1
   20    32    25 1
   21    33    21 1
   22    33    26 1
   23    34    22 1
   24    34    27 1
   25    35    23 1
   26    35    28 1
   27    36    12 1
   28    36    24 1
   29    37    13 1
   30    37    15 1
   31    38    31 1
   32    39    20 1
   33    39    32 1
   34    40     2 1
   35    40    33 1
   36    41     3 1
   37    41    34 1
   38    42     4 1
   39    42    35 1
   40    43    38 1
   41    44     5 1
   42    44    17 1
   43    44    39 1
   44    45    10 1
   45    45    18 1
   46    45    40 1
   47    46    19 1
   48    46    41 1
   49    47    14 1
   50    47    16 1
   51    47    42 1
   52    48    38 1
   53    49    48 1
   54    50    49 1
   55    51    50 1
   56    52    51 1
   57    53    51 1
   58    54    53 1
   59    55    54 1
   60    56    55 1
   61    57    56 1
   62    58    56 1
   63    59    58 1
   64    60    59 1
   65    61    60 1
   66    62    61 1
   67    63    61 1
   68    64    27 1
   69    64    46 1
   70    65     5 1
   71    65    10 1
   72    65    64 1
   73    65    14 1
   74    66    23 1
   75    67    23 1
   76    68    23 1
   77    69    22 1
   78    70    22 1
   79    71    22 1
   80    72    21 1
   81    73    21 1
   82    74    21 1
   83    75    20 1
   84    76    20 1
   85    77    20 1
   86    78    15 1
   87    79    15 1
   88    80    15 1
   89    81     8 1
   90    82     8 1
   91    83     8 1
   92    84     7 1
   93    85     7 1
   94    86     6 1
   95    87     6 1
   96    88     3 1
   97    89     3 1
   98    90     1 1
   99    91     1 1
  100    92    63 1
  101    93    63 1
  102    94    63 1
  103    95    62 1
  104    96    62 1
  105    97    62 1
  106    98    60 1
  107    99    60 1
  108   100    59 1
  109   101    59 1
  110   102    58 1
  111   103    58 1
  112   104    57 1
  113   105    57 1
  114   106    57 1
  115   107    55 1
  116   108    55 1
  117   109    54 1
  118   110    54 1
  119   111    53 1
  120   112    53 1
  121   113    19 1
  122   114    18 1
  123   115    17 1
  124   116     9 1
  125   117     2 1
  126   118    52 1
  127   119    52 1
  128   120    52 1
  129   121    51 1
  130   122    50 1
  131   123    50 1
  132   124    49 1
  133   125    49 1
  134   126    48 1
  135   127    48 1
  136   128    43 1
  137   129    43 1
  138   130    43 1
  139   131    39 1
  140   132    32 1
  141   133    31 1
  142   134    61 1
  143   135    56 1
  144   136    24 1
  145   137    24 1
  146   139   138 1
  147   140   139 1
  148   141   140 1
  149   142   140 1
  150   143   142 1
  151   144   138 1
  152   144   143 1
  153   145   144 1
  154   146   145 1
  155   147   146 1
  156   148   147 1
  157   149   148 1
  158   150   149 1
  159   151   150 1
  160   152   151 1
  161   153   152 1
  162   154   138 1
  163   155   138 1
  164   156   143 1
  165   157   147 1
  166   158   151 1
  167   160   159 1
  168   161   160 1
  169   162   161 1
  170   163   161 1
  171   164   163 1
  172   165   159 1
  173   165   164 1
  174   166   165 1
  175   167   166 1
  176   168   167 1
  177   169   168 1
  178   170   169 1
  179   171   170 1
  180   172   171 1
  181   173   172 1
  182   174   153 1
  183   174   173 1
  184   175   159 1
  185   176   159 1
  186   177   164 1
  187   178   168 1
  188   179   172 1
  189   180   179 1
  190   181   179 1
  191   182   179 1
  192   183   178 1
  193   184   178 1
  194   185   178 1
  195   186   177 1
  196   187   177 1
  197   188   177 1
  198   189   176 1
  199   190   176 1
  200   191   176 1
  201   192   175 1
  202   193   175 1
  203   194   175 1
  204   195   160 1
  205   196   160 1
  206   197   158 1
  207   198   158 1
  208   199   158 1
  209   200   157 1
  210   201   157 1
  211   202   157 1
  212   203   156 1
  213   204   156 1
  214   205   156 1
  215   206   155 1
  216   207   155 1
  217   208   155 1
  218   209   154 1
  219   210   154 1
  220   211   154 1
  221   212   141 1
  222   213   146 1
  223   214   145 1
  224   215   142 1
  225   216   142 1
  226   217   174 1
  227   218   173 1
  228   219   171 1
  229   220   170 1
  230   221   169 1
  231   222   140 1
  232   223   167 1
  233   224   166 1
  234   225   165 1
  235   226   163 1
  236   227   161 1
  237   228   139 1
  238   229   139 1
  239   230   153 1
  240   231   152 1
  241   232   150 1
  242   233   149 1
  243   234   148 1
  244   235   162 1
  245   65    153 1
  246   65    174 1
@<TRIPOS>SUBSTRUCTURE
      1 CLA               1 ****               0 ****  **** 
      2 LUT             138 ****               0 ****  **** 
