@<TRIPOS>MOLECULE
Cpptraj generated mol2 file.
  235   246     2     0     0
SMALL
USER_CHARGES


@<TRIPOS>ATOM
      1 CAA        78.1022   58.7035   34.9433 a2         1 CLA     -0.055900
      2 CAB        78.1505   62.9707   43.9269 c8         1 CLA     -0.148500
      3 CAC        71.3569   58.9653   43.5425 a2         1 CLA     -0.012600
      4 CAD        73.9878   56.4161   36.2449 ck         1 CLA      0.398800
      5 NA         77.1792   59.3706   38.2992 ns         1 CLA     -0.225500
      6 CBA        79.2775   58.7012   34.0525 a2         1 CLA     -0.135000
      7 CBB        79.3028   62.9869   44.7336 c0         1 CLA     -0.395200
      8 CBC        71.1411   57.4915   43.2316 a3         1 CLA     -0.037700
      9 CBD        75.4727   56.8235   35.8794 a1         1 CLA     -0.053900
     10 NB         77.1241   61.1610   40.7577 nm         1 CLA     -0.295700
     11 OBD        73.4187   55.4488   35.7245 o2         1 CLA     -0.494600
     12 CGA        79.6779   57.3252   33.5374 c4         1 CLA      0.827000
     13 CGD        76.3754   55.5919   35.8540 c4         1 CLA      0.655300
     14 ND         74.3154   58.7048   38.8185 nm         1 CLA     -0.291600
     15 CED        77.1096   53.7812   37.2676 a3         1 CLA      0.005400
     16 CHA        75.8201   57.8381   36.9700 cs         1 CLA     -0.123800
     17 CHB        79.0578   60.7813   39.2689 aa         1 CLA     -0.291900
     18 CHC        75.7936   61.3380   42.9186 aa         1 CLA     -0.090400
     19 CHD        72.5144   58.7619   40.3770 aa         1 CLA     -0.052000
     20 CMA        80.4882   58.4140   37.5261 a3         1 CLA     -0.230700
     21 CMB        80.4382   62.6100   41.3798 a3         1 CLA     -0.180800
     22 CMC        73.5341   60.8745   44.9769 a3         1 CLA     -0.134000
     23 CMD        71.2890   56.6878   38.4797 a3         1 CLA     -0.141100
     24 C1         80.5056   55.1770   34.1296 a2         1 CLA      0.023000
     25 C1A        77.0324   58.4624   37.2359 ac         1 CLA     -0.015100
     26 C1B        78.4380   61.3413   40.4703 cr         1 CLA      0.054700
     27 C1C        74.6135   60.7129   42.5807 cn         1 CLA     -0.005600
     28 C1D        73.0825   58.3536   39.2189 ap         1 CLA     -0.047300
     29 O1A        79.5711   56.8907   32.3753 o2         1 CLA     -0.610800
     30 O1D        76.6773   54.8758   34.8937 o2         1 CLA     -0.558200
     31 C2         80.8815   54.3310   35.3314 c8         1 CLA     -0.325100
     32 C2A        78.3510   58.3190   36.4309 a1         1 CLA      0.098600
     33 C2B        79.0670   62.1164   41.5824 cb         1 CLA      0.088500
     34 C2C        73.5328   60.4131   43.5348 cb         1 CLA      0.053700
     35 C2D        72.6227   57.2916   38.4008 cb         1 CLA      0.058900
     36 O2A        80.1013   56.4565   34.5056 o1         1 CLA     -0.437200
     37 O2D        76.5639   55.2352   37.1544 o1         1 CLA     -0.357600
     38 C3         82.0624   54.3406   35.9496 c5         1 CLA      0.031200
     39 C3A        79.2855   59.2962   37.1682 a1         1 CLA      0.166800
     40 C3B        78.0674   62.3068   42.6068 cb         1 CLA      0.035000
     41 C3C        72.5987   59.6500   42.8624 cb         1 CLA     -0.089900
     42 C3D        73.5816   57.1710   37.4420 cb         1 CLA     -0.035900
     43 C4         83.2290   53.5107   35.4379 a3         1 CLA     -0.053300
     44 C4A        78.4873   59.8228   38.3395 ac         1 CLA      0.001800
     45 C4B        76.8487   61.6787   42.0572 cn         1 CLA     -0.020900
     46 C4C        73.1097   59.5107   41.4768 cr         1 CLA     -0.044400
     47 C4D        74.6260   57.9915   37.7698 c6         1 CLA     -0.046000
     48 C5         82.2629   54.9764   37.3036 a2         1 CLA     -0.070400
     49 C6         83.3280   56.0843   37.4636 a2         1 CLA      0.043900
     50 C7         83.4031   56.6426   38.9402 a2         1 CLA     -0.150000
     51 C8         84.4459   57.7365   39.2212 a1         1 CLA      0.064200
     52 C9         85.9489   57.4036   38.9358 a3         1 CLA     -0.259300
     53 C10        84.4851   58.3642   40.6584 a2         1 CLA     -0.071900
     54 C11        83.1058   58.7697   41.2589 a2         1 CLA      0.014500
     55 C12        83.3022   59.8360   42.4580 a2         1 CLA     -0.112100
     56 C13        84.1100   59.2993   43.6372 a1         1 CLA      0.089200
     57 C14        83.4188   58.1045   44.3403 a3         1 CLA     -0.239100
     58 C15        84.3431   60.5336   44.5375 a2         1 CLA     -0.102200
     59 C16        83.2990   60.8354   45.5236 a2         1 CLA      0.023900
     60 C17        83.6775   62.0851   46.3521 a2         1 CLA     -0.105700
     61 C18        82.9225   62.5712   47.6215 a1         1 CLA      0.206800
     62 C19        83.3392   61.5924   48.7904 a3         1 CLA     -0.280100
     63 C20        83.3228   64.0127   48.1015 a3         1 CLA     -0.280100
     64 NC         74.2930   60.1949   41.3020 nx         1 CLA     -0.309200
     65 MG         75.6895   60.0252   39.6031 mg         1 CLA      0.895000
     66 HMD3       70.6309   57.4362   38.1627 dc         1 CLA      0.064300
     67 HMD2       71.1026   55.8523   37.7898 dc         1 CLA      0.064300
     68 HMD1       71.0578   56.3872   39.4985 dc         1 CLA      0.064300
     69 HMC3       72.5290   60.7987   45.2913 dc         1 CLA      0.052100
     70 HMC2       74.2348   60.4117   45.6817 dc         1 CLA      0.052100
     71 HMC1       73.6921   61.9106   44.9344 dc         1 CLA      0.052100
     72 HMB3       81.1282   61.8496   41.7727 dc         1 CLA      0.063600
     73 HMB2       80.5057   62.8990   40.3220 dc         1 CLA      0.063600
     74 HMB1       80.4530   63.5786   41.8617 dc         1 CLA      0.063600
     75 HMA3       81.0159   58.9250   38.3098 dc         1 CLA      0.058300
     76 HMA2       80.2792   57.4761   38.0334 dc         1 CLA      0.058300
     77 HMA1       81.1655   58.1908   36.6376 dc         1 CLA      0.058300
     78 HED3       76.9622   53.3102   38.2226 dc         1 CLA      0.079300
     79 HED2       76.6514   53.1889   36.5157 dc         1 CLA      0.079300
     80 HED1       78.2022   53.8738   37.1606 dc         1 CLA      0.079300
     81 HBC3       72.0625   56.9437   43.2745 dc         1 CLA      0.016300
     82 HBC2       70.4797   57.1327   43.9884 dc         1 CLA      0.016300
     83 HBC1       70.5982   57.4293   42.2410 dc         1 CLA      0.016300
     84 HBB2       79.2662   63.3296   45.7790 da         1 CLA      0.183000
     85 HBB1       80.2772   62.5917   44.4853 da         1 CLA      0.183000
     86 HBA2       79.0010   59.3130   33.1639 dc         1 CLA      0.029400
     87 HBA1       80.1461   59.2054   34.5129 dc         1 CLA      0.029400
     88 HAC2       71.3925   58.9956   44.6999 dc         1 CLA      0.029300
     89 HAC1       70.4650   59.5625   43.3481 dc         1 CLA      0.029300
     90 HAA2       77.4015   58.0460   34.4992 dc         1 CLA      0.028700
     91 HAA1       77.6429   59.7082   34.8394 dc         1 CLA      0.028700
     92 H203       84.4085   64.0810   48.1414 dc         1 CLA      0.065600
     93 H202       82.8946   64.7354   47.4347 dc         1 CLA      0.065600
     94 H201       83.0014   64.2530   49.0801 dc         1 CLA      0.065600
     95 H193       84.3941   61.8308   49.0503 dc         1 CLA      0.065600
     96 H192       82.5731   61.6064   49.6081 dc         1 CLA      0.065600
     97 H191       83.2250   60.6035   48.2845 dc         1 CLA      0.065600
     98 H172       84.7318   62.1325   46.4776 dc         1 CLA      0.027600
     99 H171       83.5089   62.8093   45.6362 dc         1 CLA      0.027600
    100 H162       82.4329   61.0902   44.9674 dc         1 CLA      0.002900
    101 H161       82.9639   59.9943   46.1373 dc         1 CLA      0.002900
    102 H152       85.2821   60.3629   45.1311 dc         1 CLA      0.029100
    103 H151       84.5329   61.4795   43.9504 dc         1 CLA      0.029100
    104 H143       82.4681   58.2822   44.8134 dc         1 CLA      0.063600
    105 H142       83.2009   57.2369   43.6264 dc         1 CLA      0.063600
    106 H141       84.1654   57.7839   45.1707 dc         1 CLA      0.063600
    107 H122       83.7059   60.7593   42.0054 dc         1 CLA      0.032500
    108 H121       82.3330   60.0605   42.8374 dc         1 CLA      0.032500
    109 H112       82.5805   59.4285   40.5134 dc         1 CLA      0.006600
    110 H111       82.5114   57.9059   41.4745 dc         1 CLA      0.006600
    111 H102       84.7910   57.6351   41.3811 dc         1 CLA      0.024100
    112 H101       85.2354   59.1275   40.6523 dc         1 CLA      0.024100
    113 HHD        71.5310   58.3777   40.4917 da         1 CLA      0.174300
    114 HHC        75.9458   61.5210   43.9495 da         1 CLA      0.136800
    115 HHB        80.1111   61.0740   39.1200 da         1 CLA      0.138300
    116 HBD        75.4201   57.2164   34.8990 dc         1 CLA      0.107700
    117 HAB        77.2138   63.3973   44.3124 da         1 CLA      0.155200
    118 H93        85.9973   57.1194   37.8642 dc         1 CLA      0.069500
    119 H92        86.6175   58.2488   39.0885 dc         1 CLA      0.069500
    120 H91        86.2845   56.5447   39.5900 dc         1 CLA      0.069500
    121 H8         84.2107   58.5215   38.5598 dc         1 CLA      0.029300
    122 H72        82.3927   56.9650   39.2348 dc         1 CLA      0.044400
    123 H71        83.6477   55.7811   39.5401 dc         1 CLA      0.044400
    124 H62        84.2733   55.6242   37.3138 dc         1 CLA      0.015600
    125 H61        83.2525   56.8855   36.6928 dc         1 CLA      0.015600
    126 H52        81.2425   55.2999   37.5475 dc         1 CLA      0.033200
    127 H51        82.6384   54.1334   37.8885 dc         1 CLA      0.033200
    128 H43        82.8567   53.1429   34.4831 dc         1 CLA      0.037000
    129 H42        83.9663   54.2023   35.1892 dc         1 CLA      0.037000
    130 H41        83.5038   52.7885   36.1787 dc         1 CLA      0.037000
    131 H3A        79.5468   60.0901   36.4573 dc         1 CLA      0.041100
    132 H2A        78.6947   57.2841   36.3598 dc         1 CLA      0.083100
    133 H2         80.2358   53.4874   35.6435 da         1 CLA      0.180900
    134 H18        81.9073   62.6172   47.4150 dc         1 CLA     -0.003900
    135 H13        85.0515   59.0934   43.1844 dc         1 CLA      0.019700
    136 H12        79.7605   54.6458   33.6235 dc         1 CLA      0.120400
    137 H11        81.4051   55.2753   33.4864 dc         1 CLA      0.120400
    138 C1         67.7503   62.2811   51.1473 Z1         2 LUT      0.509236
    139 C2         67.2894   63.1883   52.3221 Z2         2 LUT     -0.434695
    140 C3         65.8160   63.4745   52.2793 Z3         2 LUT      0.437453
    141 O3         65.4927   64.3153   53.3564 S1         2 LUT     -0.547129
    142 C4         65.6100   64.2556   50.9171 Z4         2 LUT     -0.468603
    143 C5         66.2710   63.6671   49.6999 Z5         2 LUT      0.279246
    144 C6         67.2661   62.7555   49.7906 Z6         2 LUT     -0.305473
    145 C7         68.0826   62.2910   48.6472 Z7         2 LUT      0.069402
    146 C8         68.7649   62.9202   47.6676 Z8         2 LUT     -0.191631
    147 C9         69.2815   62.4517   46.3465 Z9         2 LUT      0.196698
    148 C10        69.9390   63.3464   45.6320 Y1         2 LUT     -0.208611
    149 C11        70.6260   63.1234   44.4141 Y2         2 LUT      0.030784
    150 C12        71.6789   63.8662   44.0182 Y3         2 LUT     -0.220316
    151 C13        72.5152   63.7054   42.8690 Y4         2 LUT      0.215937
    152 C14        73.6381   64.4980   42.8473 Y5         2 LUT     -0.185793
    153 C15        74.7088   64.5363   41.8857 Y6         2 LUT     -0.057835
    154 C16        67.4211   60.7552   51.3163 Y7         2 LUT     -0.405615
    155 C17        69.2723   62.2096   51.3234 Y7         2 LUT     -0.405615
    156 C18        66.1683   64.6018   48.5104 Y9         2 LUT     -0.369639
    157 C19        69.0433   60.9950   45.8704 W1         2 LUT     -0.333362
    158 C20        72.0441   63.0227   41.6180 W2         2 LUT     -0.323439
    159 C21        86.6691   65.5555   36.5998 Z1         2 LUT      0.406104
    160 C22        87.3295   64.9296   35.3922 Z2         2 LUT     -0.404965
    161 C23        87.4009   65.7803   34.1718 Z3         2 LUT      0.391255
    162 O23        87.5877   64.9300   33.0325 S1         2 LUT     -0.528210
    163 C24        86.0597   66.4864   33.8009 W6         2 LUT     -0.258361
    164 C25        85.0652   66.5715   34.6809 Z5         2 LUT      0.133546
    165 C26        85.2045   65.9457   36.1227 W8         2 LUT     -0.147008
    166 C27        84.3667   66.6269   37.2298 Z7         2 LUT      0.023843
    167 C28        83.2233   66.1998   37.7607 Z8         2 LUT     -0.216987
    168 C29        82.5615   66.5344   38.9357 Z9         2 LUT      0.206524
    169 C30        81.3841   65.9193   39.1426 Y1         2 LUT     -0.215556
    170 C31        80.4920   66.0293   40.2924 Y2         2 LUT      0.025142
    171 C32        79.2297   65.5772   40.2158 Y3         2 LUT     -0.212209
    172 C33        78.2787   65.6997   41.3229 Y4         2 LUT      0.240937
    173 C34        77.0470   65.1887   41.1998 Y5         2 LUT     -0.218862
    174 C35        75.9445   65.1572   42.1350 Y6         2 LUT     -0.023547
    175 C36        87.4758   66.8288   37.0990 Y7         2 LUT     -0.393485
    176 C37        86.7320   64.4799   37.7534 Y7         2 LUT     -0.393485
    177 C38        83.8647   67.4500   34.4139 Y9         2 LUT     -0.387526
    178 C39        83.1301   67.5766   39.8739 W1         2 LUT     -0.322618
    179 C40        78.6438   66.5174   42.5409 W2         2 LUT     -0.358472
    180 H403       79.0243   65.7968   43.1156 R7         2 LUT      0.097720
    181 H402       79.3937   67.3729   42.4435 R7         2 LUT      0.097720
    182 H401       77.8263   66.8381   43.1829 R7         2 LUT      0.097720
    183 H393       84.2214   67.5174   40.0549 R4         2 LUT      0.082505
    184 H392       82.8410   68.6030   39.5202 R4         2 LUT      0.082505
    185 H391       82.6665   67.4844   40.8877 R4         2 LUT      0.082505
    186 H383       83.2263   67.0511   33.6073 R1         2 LUT      0.104030
    187 H382       83.2127   67.4524   35.1912 R1         2 LUT      0.104030
    188 H381       84.1632   68.4864   34.1329 R1         2 LUT      0.104030
    189 H373       87.7697   64.2446   37.7945 T4         2 LUT      0.089537
    190 H372       86.5365   64.8125   38.7615 T4         2 LUT      0.089537
    191 H371       86.3134   63.5444   37.4142 T4         2 LUT      0.089537
    192 H363       87.3353   67.6910   36.4407 T4         2 LUT      0.089537
    193 H362       87.1335   67.1869   38.1162 T4         2 LUT      0.089537
    194 H361       88.5775   66.6044   37.1061 T4         2 LUT      0.089537
    195 H222       88.3592   64.7795   35.5703 U2         2 LUT      0.127376
    196 H221       86.7329   64.0842   35.1363 U2         2 LUT      0.127376
    197 H203       71.3511   62.1112   41.7003 R7         2 LUT      0.087068
    198 H202       71.4125   63.5929   40.8996 R7         2 LUT      0.087068
    199 H201       72.8239   62.6281   41.0420 R7         2 LUT      0.087068
    200 H193       68.9316   60.8428   44.8085 R4         2 LUT      0.089716
    201 H192       69.9007   60.3180   46.2327 R4         2 LUT      0.089716
    202 H191       68.1811   60.5121   46.2444 R4         2 LUT      0.089716
    203 H183       65.1023   64.8489   48.3752 R1         2 LUT      0.094572
    204 H182       66.8132   65.4299   48.6942 R1         2 LUT      0.094572
    205 H181       66.4207   64.0602   47.5796 R1         2 LUT      0.094572
    206 H173       69.5689   61.6841   52.2187 T4         2 LUT      0.093752
    207 H172       69.6103   61.5158   50.5244 T4         2 LUT      0.093752
    208 H171       69.7292   63.2114   51.2019 T4         2 LUT      0.093752
    209 H163       68.1408   60.2012   50.7296 T4         2 LUT      0.093752
    210 H162       67.7388   60.3964   52.3204 T4         2 LUT      0.093752
    211 H161       66.4477   60.3767   51.0779 T4         2 LUT      0.093752
    212 HO3        64.9967   63.8301   54.0074 Q1         2 LUT      0.300121
    213 H8         68.8876   63.9977   47.8337 U7         2 LUT      0.080784
    214 H7         67.7977   61.2774   48.5708 U6         2 LUT      0.042190
    215 H42        64.5471   64.1592   50.6437 U5         2 LUT      0.145166
    216 H41        65.8541   65.2741   51.1465 U5         2 LUT      0.145166
    217 H35        76.0318   65.4977   43.1967 T3         2 LUT      0.077919
    218 H34        76.6994   64.6362   40.3337 T2         2 LUT      0.073626
    219 H32        78.9561   65.0208   39.3389 T1         2 LUT      0.092510
    220 H31        80.8206   66.5542   41.1763 U9         2 LUT      0.070048
    221 H30        80.9945   65.1946   38.4068 U8         2 LUT      0.085442
    222 H3         65.2033   62.5070   52.2810 U3         2 LUT     -0.031596
    223 H28        82.7750   65.3309   37.3196 U7         2 LUT      0.084728
    224 H27        84.8492   67.3470   37.8764 U6         2 LUT      0.087291
    225 H26        84.8362   64.9654   35.9844 Q6         2 LUT      0.075325
    226 H24        85.9292   66.9726   32.8124 Q5         2 LUT      0.094482
    227 H23        88.2490   66.4864   34.3043 U3         2 LUT     -0.024869
    228 H22        67.4643   62.8477   53.3904 U2         2 LUT      0.127376
    229 H21        67.5871   64.2101   52.2135 U2         2 LUT      0.127376
    230 H15        74.5078   64.1186   40.8369 T3         2 LUT      0.093200
    231 H14        73.7862   65.0661   43.7332 T2         2 LUT      0.068865
    232 H12        71.9340   64.5570   44.8086 T1         2 LUT      0.095507
    233 H11        70.3162   62.3762   43.7438 U9         2 LUT      0.068930
    234 H10        69.9815   64.3634   45.9176 U8         2 LUT      0.083911
    235 H1         88.0558   65.4300   32.3636 Q1         2 LUT      0.297311
@<TRIPOS>BOND
    1     6     1 1
    2     7     2 1
    3     8     3 1
    4     9     4 1
    5    11     4 1
    6    12     6 1
    7    13     9 1
    8    16     9 1
    9    25     5 1
   10    25    16 1
   11    26    10 1
   12    26    17 1
   13    27    18 1
   14    28    14 1
   15    28    19 1
   16    29    12 1
   17    30    13 1
   18    31    24 1
   19    32     1 1
   20    32    25 1
   21    33    21 1
   22    33    26 1
   23    34    22 1
   24    34    27 1
   25    35    23 1
   26    35    28 1
   27    36    12 1
   28    36    24 1
   29    37    13 1
   30    37    15 1
   31    38    31 1
   32    39    20 1
   33    39    32 1
   34    40     2 1
   35    40    33 1
   36    41     3 1
   37    41    34 1
   38    42     4 1
   39    42    35 1
   40    43    38 1
   41    44     5 1
   42    44    17 1
   43    44    39 1
   44    45    10 1
   45    45    18 1
   46    45    40 1
   47    46    19 1
   48    46    41 1
   49    47    14 1
   50    47    16 1
   51    47    42 1
   52    48    38 1
   53    49    48 1
   54    50    49 1
   55    51    50 1
   56    52    51 1
   57    53    51 1
   58    54    53 1
   59    55    54 1
   60    56    55 1
   61    57    56 1
   62    58    56 1
   63    59    58 1
   64    60    59 1
   65    61    60 1
   66    62    61 1
   67    63    61 1
   68    64    27 1
   69    64    46 1
   70    65     5 1
   71    65    10 1
   72    65    64 1
   73    65    14 1
   74    66    23 1
   75    67    23 1
   76    68    23 1
   77    69    22 1
   78    70    22 1
   79    71    22 1
   80    72    21 1
   81    73    21 1
   82    74    21 1
   83    75    20 1
   84    76    20 1
   85    77    20 1
   86    78    15 1
   87    79    15 1
   88    80    15 1
   89    81     8 1
   90    82     8 1
   91    83     8 1
   92    84     7 1
   93    85     7 1
   94    86     6 1
   95    87     6 1
   96    88     3 1
   97    89     3 1
   98    90     1 1
   99    91     1 1
  100    92    63 1
  101    93    63 1
  102    94    63 1
  103    95    62 1
  104    96    62 1
  105    97    62 1
  106    98    60 1
  107    99    60 1
  108   100    59 1
  109   101    59 1
  110   102    58 1
  111   103    58 1
  112   104    57 1
  113   105    57 1
  114   106    57 1
  115   107    55 1
  116   108    55 1
  117   109    54 1
  118   110    54 1
  119   111    53 1
  120   112    53 1
  121   113    19 1
  122   114    18 1
  123   115    17 1
  124   116     9 1
  125   117     2 1
  126   118    52 1
  127   119    52 1
  128   120    52 1
  129   121    51 1
  130   122    50 1
  131   123    50 1
  132   124    49 1
  133   125    49 1
  134   126    48 1
  135   127    48 1
  136   128    43 1
  137   129    43 1
  138   130    43 1
  139   131    39 1
  140   132    32 1
  141   133    31 1
  142   134    61 1
  143   135    56 1
  144   136    24 1
  145   137    24 1
  146   139   138 1
  147   140   139 1
  148   141   140 1
  149   142   140 1
  150   143   142 1
  151   144   138 1
  152   144   143 1
  153   145   144 1
  154   146   145 1
  155   147   146 1
  156   148   147 1
  157   149   148 1
  158   150   149 1
  159   151   150 1
  160   152   151 1
  161   153   152 1
  162   154   138 1
  163   155   138 1
  164   156   143 1
  165   157   147 1
  166   158   151 1
  167   160   159 1
  168   161   160 1
  169   162   161 1
  170   163   161 1
  171   164   163 1
  172   165   159 1
  173   165   164 1
  174   166   165 1
  175   167   166 1
  176   168   167 1
  177   169   168 1
  178   170   169 1
  179   171   170 1
  180   172   171 1
  181   173   172 1
  182   174   153 1
  183   174   173 1
  184   175   159 1
  185   176   159 1
  186   177   164 1
  187   178   168 1
  188   179   172 1
  189   180   179 1
  190   181   179 1
  191   182   179 1
  192   183   178 1
  193   184   178 1
  194   185   178 1
  195   186   177 1
  196   187   177 1
  197   188   177 1
  198   189   176 1
  199   190   176 1
  200   191   176 1
  201   192   175 1
  202   193   175 1
  203   194   175 1
  204   195   160 1
  205   196   160 1
  206   197   158 1
  207   198   158 1
  208   199   158 1
  209   200   157 1
  210   201   157 1
  211   202   157 1
  212   203   156 1
  213   204   156 1
  214   205   156 1
  215   206   155 1
  216   207   155 1
  217   208   155 1
  218   209   154 1
  219   210   154 1
  220   211   154 1
  221   212   141 1
  222   213   146 1
  223   214   145 1
  224   215   142 1
  225   216   142 1
  226   217   174 1
  227   218   173 1
  228   219   171 1
  229   220   170 1
  230   221   169 1
  231   222   140 1
  232   223   167 1
  233   224   166 1
  234   225   165 1
  235   226   163 1
  236   227   161 1
  237   228   139 1
  238   229   139 1
  239   230   153 1
  240   231   152 1
  241   232   150 1
  242   233   149 1
  243   234   148 1
  244   235   162 1
  245   65    153 1
  246   65    174 1
@<TRIPOS>SUBSTRUCTURE
      1 CLA               1 ****               0 ****  **** 
      2 LUT             138 ****               0 ****  **** 
