@<TRIPOS>MOLECULE
Cpptraj generated mol2 file.
  235   246     2     0     0
SMALL
USER_CHARGES


@<TRIPOS>ATOM
      1 CAA        77.0839   58.2738   33.5154 a2         1 CLA     -0.055900
      2 CAB        77.7175   61.3599   42.8159 c8         1 CLA     -0.148500
      3 CAC        70.6290   57.5891   42.5213 a2         1 CLA     -0.012600
      4 CAD        72.7929   55.5881   34.7743 ck         1 CLA      0.398800
      5 NA         76.0897   58.4597   37.0317 ns         1 CLA     -0.225500
      6 CBA        78.3159   57.8478   32.6444 a2         1 CLA     -0.135000
      7 CBB        78.9087   61.3052   43.4316 c0         1 CLA     -0.395200
      8 CBC        70.5502   56.0356   42.4344 a3         1 CLA     -0.037700
      9 CBD        74.2648   56.0974   34.3708 a1         1 CLA     -0.053900
     10 NB         76.2152   59.6394   39.7161 nm         1 CLA     -0.295700
     11 OBD        72.1346   54.9146   34.0203 o2         1 CLA     -0.494600
     12 CGA        78.5550   56.3483   32.2850 c4         1 CLA      0.827000
     13 CGD        75.1776   54.8295   34.1790 c4         1 CLA      0.655300
     14 ND         73.2896   57.4277   37.7067 nm         1 CLA     -0.291600
     15 CED        75.6177   52.7667   34.9840 a3         1 CLA      0.005400
     16 CHA        74.6334   57.0392   35.5891 cs         1 CLA     -0.123800
     17 CHB        78.0094   59.6494   38.0522 aa         1 CLA     -0.291900
     18 CHC        75.1153   59.6859   41.8969 aa         1 CLA     -0.090400
     19 CHD        71.6463   57.2080   39.4338 aa         1 CLA     -0.052000
     20 CMA        79.4660   57.4915   36.2051 a3         1 CLA     -0.230700
     21 CMB        79.6207   61.5498   40.1523 a3         1 CLA     -0.180800
     22 CMC        72.9053   59.2525   43.9800 a3         1 CLA     -0.134000
     23 CMD        70.1555   55.4524   37.1706 a3         1 CLA     -0.141100
     24 C1         79.3818   54.2312   33.1131 a2         1 CLA      0.023000
     25 C1A        75.8577   57.7309   35.8810 ac         1 CLA     -0.015100
     26 C1B        77.4654   60.0817   39.2598 cr         1 CLA      0.054700
     27 C1C        73.9017   59.2321   41.5537 cn         1 CLA     -0.005600
     28 C1D        72.0920   56.9599   38.1020 ap         1 CLA     -0.047300
     29 O1A        78.2423   55.8655   31.2161 o2         1 CLA     -0.610800
     30 O1D        75.9550   54.6982   33.2346 o2         1 CLA     -0.558200
     31 C2         80.0345   53.8150   34.4386 c8         1 CLA     -0.325100
     32 C2A        77.0985   57.7012   34.9985 a1         1 CLA      0.098600
     33 C2B        78.2118   60.8793   40.3353 cb         1 CLA      0.088500
     34 C2C        72.8309   58.9157   42.5429 cb         1 CLA      0.053700
     35 C2D        71.5114   56.1629   37.1147 cb         1 CLA      0.058900
     36 O2A        79.1383   55.6501   33.3146 o1         1 CLA     -0.437200
     37 O2D        74.8291   53.9908   35.2041 o1         1 CLA     -0.357600
     38 C3         80.6795   52.6648   34.8353 c5         1 CLA      0.031200
     39 C3A        78.2263   58.3905   35.8655 a1         1 CLA      0.166800
     40 C3B        77.4055   60.7825   41.4849 cb         1 CLA      0.035000
     41 C3C        71.8105   58.1935   41.8006 cb         1 CLA     -0.089900
     42 C3D        72.4671   56.1197   36.0759 cb         1 CLA     -0.035900
     43 C4         80.0716   51.6304   35.6204 a3         1 CLA     -0.053300
     44 C4A        77.4218   58.8249   37.0462 ac         1 CLA      0.001800
     45 C4B        76.1677   60.0093   41.0283 cn         1 CLA     -0.020900
     46 C4C        72.2555   57.9818   40.4392 cr         1 CLA     -0.044400
     47 C4D        73.4982   56.9641   36.4471 c6         1 CLA     -0.046000
     48 C5         82.2122   52.5734   34.5951 a2         1 CLA     -0.070400
     49 C6         82.9858   53.7447   35.1730 a2         1 CLA      0.043900
     50 C7         82.8678   53.7303   36.7050 a2         1 CLA     -0.150000
     51 C8         83.7106   54.9334   37.3617 a1         1 CLA      0.064200
     52 C9         85.2191   54.7399   37.1266 a3         1 CLA     -0.259300
     53 C10        83.3839   55.0821   38.8167 a2         1 CLA     -0.071900
     54 C11        81.9837   55.7547   39.2108 a2         1 CLA      0.014500
     55 C12        82.0685   56.1379   40.6555 a2         1 CLA     -0.112100
     56 C13        80.7883   56.6470   41.2924 a1         1 CLA      0.089200
     57 C14        80.1140   57.8438   40.5237 a3         1 CLA     -0.239100
     58 C15        80.8748   57.0063   42.8339 a2         1 CLA     -0.102200
     59 C16        81.7905   58.0905   43.3510 a2         1 CLA      0.023900
     60 C17        81.7815   58.1225   44.8693 a2         1 CLA     -0.105700
     61 C18        82.9356   58.8839   45.6453 a1         1 CLA      0.206800
     62 C19        84.3342   58.2297   45.3139 a3         1 CLA     -0.280100
     63 C20        82.8764   60.3967   45.4620 a3         1 CLA     -0.280100
     64 NC         73.4776   58.7322   40.2962 nx         1 CLA     -0.309200
     65 MG         74.7166   58.6196   38.6467 mg         1 CLA      0.895000
     66 HMD3       70.0825   54.7091   36.3454 dc         1 CLA      0.064300
     67 HMD2       70.1223   54.9144   38.1331 dc         1 CLA      0.064300
     68 HMD1       69.2745   56.0386   37.1124 dc         1 CLA      0.064300
     69 HMC3       72.1972   58.7869   44.6464 dc         1 CLA      0.052100
     70 HMC2       73.9457   59.0517   44.3087 dc         1 CLA      0.052100
     71 HMC1       72.8176   60.3212   43.9651 dc         1 CLA      0.052100
     72 HMB3       79.7765   62.4757   40.7767 dc         1 CLA      0.063600
     73 HMB2       80.2613   60.7499   40.4535 dc         1 CLA      0.063600
     74 HMB1       79.7289   61.8626   39.1698 dc         1 CLA      0.063600
     75 HMA3       80.3750   58.0532   36.3906 dc         1 CLA      0.058300
     76 HMA2       79.2750   56.7317   36.9598 dc         1 CLA      0.058300
     77 HMA1       79.7753   56.9127   35.3507 dc         1 CLA      0.058300
     78 HED3       75.1886   52.2352   35.8361 dc         1 CLA      0.079300
     79 HED2       75.2722   52.3434   34.0413 dc         1 CLA      0.079300
     80 HED1       76.7046   52.8059   35.0693 dc         1 CLA      0.079300
     81 HBC3       69.9722   55.7163   41.5575 dc         1 CLA      0.016300
     82 HBC2       71.5283   55.6810   42.4090 dc         1 CLA      0.016300
     83 HBC1       70.0797   55.6466   43.3262 dc         1 CLA      0.016300
     84 HBB2       78.9916   61.7863   44.4041 da         1 CLA      0.183000
     85 HBB1       79.8041   60.7864   43.0660 da         1 CLA      0.183000
     86 HBA2       78.3327   58.3811   31.7039 dc         1 CLA      0.029400
     87 HBA1       79.2567   58.1332   33.1669 dc         1 CLA      0.029400
     88 HAC2       70.6752   57.8000   43.5617 dc         1 CLA      0.029300
     89 HAC1       69.6819   57.9972   42.1711 dc         1 CLA      0.029300
     90 HAA2       76.1297   57.9629   33.1196 dc         1 CLA      0.028700
     91 HAA1       77.0027   59.3579   33.5497 dc         1 CLA      0.028700
     92 H203       83.5991   60.8067   46.1467 dc         1 CLA      0.065600
     93 H202       83.1386   60.5445   44.3875 dc         1 CLA      0.065600
     94 H201       81.8403   60.7528   45.6450 dc         1 CLA      0.065600
     95 H193       85.0529   58.7517   46.0015 dc         1 CLA      0.065600
     96 H192       84.4632   57.1962   45.4891 dc         1 CLA      0.065600
     97 H191       84.5534   58.3761   44.2539 dc         1 CLA      0.065600
     98 H172       80.8784   58.4038   45.2547 dc         1 CLA      0.027600
     99 H171       81.9896   57.1116   45.1240 dc         1 CLA      0.027600
    100 H162       82.7893   57.8709   42.9381 dc         1 CLA      0.002900
    101 H161       81.4466   58.9754   42.9060 dc         1 CLA      0.002900
    102 H152       79.8248   57.0584   43.1685 dc         1 CLA      0.029100
    103 H151       81.1687   56.0368   43.3088 dc         1 CLA      0.029100
    104 H143       79.9705   57.5969   39.4656 dc         1 CLA      0.063600
    105 H142       79.1916   58.1277   41.0511 dc         1 CLA      0.063600
    106 H141       80.8780   58.6810   40.5148 dc         1 CLA      0.063600
    107 H122       82.4706   55.2959   41.2265 dc         1 CLA      0.032500
    108 H121       82.7781   56.9655   40.6556 dc         1 CLA      0.032500
    109 H112       81.9625   56.6018   38.5300 dc         1 CLA      0.006600
    110 H111       81.3370   54.9575   38.9613 dc         1 CLA      0.006600
    111 H102       83.3433   54.1031   39.2378 dc         1 CLA      0.024100
    112 H101       84.1275   55.6999   39.3199 dc         1 CLA      0.024100
    113 HHD        70.7350   56.7120   39.6408 da         1 CLA      0.174300
    114 HHC        75.2163   59.9864   42.9666 da         1 CLA      0.136800
    115 HHB        78.9990   60.1100   37.9302 da         1 CLA      0.138300
    116 HBD        74.2165   56.6513   33.5231 dc         1 CLA      0.107700
    117 HAB        76.7616   61.7227   43.2913 da         1 CLA      0.155200
    118 H93        85.7094   55.5908   37.5276 dc         1 CLA      0.069500
    119 H92        85.6969   53.8377   37.5844 dc         1 CLA      0.069500
    120 H91        85.4647   54.8687   36.0828 dc         1 CLA      0.069500
    121 H8         83.4511   55.8490   36.8770 dc         1 CLA      0.029300
    122 H72        81.8342   53.9274   37.1369 dc         1 CLA      0.044400
    123 H71        83.1893   52.7502   37.1315 dc         1 CLA      0.044400
    124 H62        83.9967   53.9682   34.8108 dc         1 CLA      0.015600
    125 H61        82.5016   54.6210   34.7889 dc         1 CLA      0.015600
    126 H52        82.6737   51.6398   34.9714 dc         1 CLA      0.033200
    127 H51        82.3281   52.6047   33.5110 dc         1 CLA      0.033200
    128 H43        78.9850   51.7383   35.6014 dc         1 CLA      0.037000
    129 H42        80.3206   50.7489   35.1733 dc         1 CLA      0.037000
    130 H41        80.4408   51.6169   36.6594 dc         1 CLA      0.037000
    131 H3A        78.7038   59.2503   35.4204 dc         1 CLA      0.041100
    132 H2A        77.4418   56.6474   34.8791 dc         1 CLA      0.083100
    133 H2         80.2410   54.6084   35.1197 da         1 CLA      0.180900
    134 H18        82.7445   58.7708   46.7006 dc         1 CLA     -0.003900
    135 H13        80.0443   55.7759   41.2236 dc         1 CLA      0.019700
    136 H12        78.5388   53.5539   32.8741 dc         1 CLA      0.120400
    137 H11        80.2338   54.1543   32.3818 dc         1 CLA      0.120400
    138 C1         67.3296   61.6418   49.8816 Z1         2 LUT      0.509236
    139 C2         67.3236   62.7934   50.8698 Z2         2 LUT     -0.434695
    140 C3         66.0246   63.5954   50.9035 Z3         2 LUT      0.437453
    141 O3         66.4722   64.8874   51.4584 S1         2 LUT     -0.547129
    142 C4         65.3745   63.7578   49.4866 Z4         2 LUT     -0.468603
    143 C5         66.1071   63.1313   48.3087 Z5         2 LUT      0.279246
    144 C6         66.9344   62.0602   48.4296 Z6         2 LUT     -0.305473
    145 C7         67.8413   61.5697   47.3282 Z7         2 LUT      0.069402
    146 C8         68.5649   62.3410   46.4156 Z8         2 LUT     -0.191631
    147 C9         69.0845   61.9863   45.0846 Z9         2 LUT      0.196698
    148 C10        70.1342   62.7016   44.6251 Y1         2 LUT     -0.208611
    149 C11        70.7750   62.5576   43.3910 Y2         2 LUT      0.030784
    150 C12        72.0933   62.9271   43.1481 Y3         2 LUT     -0.220316
    151 C13        72.8676   62.8321   41.9144 Y4         2 LUT      0.215937
    152 C14        74.0722   63.4126   41.9434 Y5         2 LUT     -0.185793
    153 C15        75.0324   63.4306   40.8789 Y6         2 LUT     -0.057835
    154 C16        66.3564   60.6261   50.4433 Y7         2 LUT     -0.405615
    155 C17        68.7587   61.0439   50.0977 Y7         2 LUT     -0.405615
    156 C18        65.8667   63.9923   47.0990 Y9         2 LUT     -0.369639
    157 C19        68.4324   60.7782   44.4069 W1         2 LUT     -0.333362
    158 C20        72.2169   62.0618   40.8090 W2         2 LUT     -0.323439
    159 C21        86.2742   64.0395   34.5138 Z1         2 LUT      0.406104
    160 C22        86.7881   63.7069   33.1348 Z2         2 LUT     -0.404965
    161 C23        87.2217   64.8686   32.2852 Z3         2 LUT      0.391255
    162 O23        87.8054   64.3943   31.0646 S1         2 LUT     -0.528210
    163 C24        86.0607   65.8205   32.0736 W6         2 LUT     -0.258361
    164 C25        85.0550   65.9042   32.9618 Z5         2 LUT      0.133546
    165 C26        84.9866   64.8787   34.1465 W8         2 LUT     -0.147008
    166 C27        84.2652   65.4947   35.3825 Z7         2 LUT      0.023843
    167 C28        83.1208   64.9987   36.0108 Z8         2 LUT     -0.216987
    168 C29        82.3524   65.5585   37.1227 Z9         2 LUT      0.206524
    169 C30        81.1106   64.9965   37.4004 Y1         2 LUT     -0.215556
    170 C31        80.4072   65.2491   38.6395 Y2         2 LUT      0.025142
    171 C32        79.2061   64.7201   38.9181 Y3         2 LUT     -0.212209
    172 C33        78.3156   64.9285   39.9937 Y4         2 LUT      0.240937
    173 C34        77.0946   64.2282   39.9043 Y5         2 LUT     -0.218862
    174 C35        76.1325   64.1714   40.9279 Y6         2 LUT     -0.023547
    175 C36        87.4255   64.8014   35.3412 Y7         2 LUT     -0.393485
    176 C37        85.9485   62.6159   35.1985 Y7         2 LUT     -0.393485
    177 C38        84.0145   66.9465   32.7143 Y9         2 LUT     -0.387526
    178 C39        82.9789   66.7313   37.9466 W1         2 LUT     -0.322618
    179 C40        78.7240   65.6480   41.2657 W2         2 LUT     -0.358472
    180 H403       79.7762   65.6627   41.4494 R7         2 LUT      0.097720
    181 H402       78.2869   66.6709   41.3446 R7         2 LUT      0.097720
    182 H401       78.3732   65.1760   42.2665 R7         2 LUT      0.097720
    183 H393       82.1609   67.3995   38.3483 R4         2 LUT      0.082505
    184 H392       83.5019   66.3668   38.8338 R4         2 LUT      0.082505
    185 H391       83.6728   67.3420   37.3600 R4         2 LUT      0.082505
    186 H383       84.2677   67.8087   33.2753 R1         2 LUT      0.104030
    187 H382       84.0110   67.0899   31.5768 R1         2 LUT      0.104030
    188 H381       82.9626   66.6060   32.9546 R1         2 LUT      0.104030
    189 H373       85.2912   62.0781   34.5298 T4         2 LUT      0.089537
    190 H372       86.9061   62.0461   35.2446 T4         2 LUT      0.089537
    191 H371       85.5778   62.6852   36.1955 T4         2 LUT      0.089537
    192 H363       87.5259   65.8311   34.8456 T4         2 LUT      0.089537
    193 H362       87.0475   65.1358   36.3420 T4         2 LUT      0.089537
    194 H361       88.4112   64.2431   35.2951 T4         2 LUT      0.089537
    195 H222       87.5373   62.9409   33.1908 U2         2 LUT      0.127376
    196 H221       86.1239   63.1457   32.4560 U2         2 LUT      0.127376
    197 H203       71.1168   62.1627   40.7368 R7         2 LUT      0.087068
    198 H202       72.5384   62.2172   39.7472 R7         2 LUT      0.087068
    199 H201       72.4013   60.9906   40.8623 R7         2 LUT      0.087068
    200 H193       69.1251   60.1101   43.8893 R4         2 LUT      0.089716
    201 H192       67.7854   60.2076   44.9999 R4         2 LUT      0.089716
    202 H191       67.6662   61.1948   43.6485 R4         2 LUT      0.089716
    203 H183       64.7664   64.3468   47.0991 R1         2 LUT      0.094572
    204 H182       66.4253   64.9159   47.1562 R1         2 LUT      0.094572
    205 H181       65.9811   63.3976   46.2154 R1         2 LUT      0.094572
    206 H173       68.9932   60.7902   51.1811 T4         2 LUT      0.093752
    207 H172       68.9370   60.2068   49.4523 T4         2 LUT      0.093752
    208 H171       69.5402   61.8087   49.8980 T4         2 LUT      0.093752
    209 H163       65.3540   61.0290   50.1232 T4         2 LUT      0.093752
    210 H162       66.4936   59.5687   50.0213 T4         2 LUT      0.093752
    211 H161       66.4686   60.6950   51.4890 T4         2 LUT      0.093752
    212 HO3        65.8047   65.4964   51.7995 Q1         2 LUT      0.300121
    213 H8         68.5981   63.3937   46.5645 U7         2 LUT      0.080784
    214 H7         67.6504   60.5128   47.0776 U6         2 LUT      0.042190
    215 H42        64.3745   63.4282   49.4871 U5         2 LUT      0.145166
    216 H41        65.1454   64.7933   49.3802 U5         2 LUT      0.145166
    217 H35        76.2938   64.6717   41.8913 T3         2 LUT      0.077919
    218 H34        76.8274   63.6661   38.9428 T2         2 LUT      0.073626
    219 H32        78.7633   64.1215   38.0944 T1         2 LUT      0.092510
    220 H31        80.8206   65.8793   39.3966 U9         2 LUT      0.070048
    221 H30        80.8438   64.1431   36.8148 U8         2 LUT      0.085442
    222 H3         65.4701   62.9827   51.6371 U3         2 LUT     -0.031596
    223 H28        82.6202   64.1693   35.5164 U7         2 LUT      0.084728
    224 H27        84.7635   66.3783   35.7818 U6         2 LUT      0.087291
    225 H26        84.2833   64.2021   33.6840 Q6         2 LUT      0.075325
    226 H24        86.2192   66.5415   31.2344 Q5         2 LUT      0.094482
    227 H23        88.0366   65.3127   32.7904 U3         2 LUT     -0.024869
    228 H22        67.6369   62.5748   51.9135 U2         2 LUT      0.127376
    229 H21        68.1220   63.4257   50.5623 U2         2 LUT      0.127376
    230 H15        74.8420   62.8744   39.9363 T3         2 LUT      0.093200
    231 H14        74.3175   64.0517   42.7888 T2         2 LUT      0.068865
    232 H12        72.5735   63.4380   43.9606 T1         2 LUT      0.095507
    233 H11        70.1828   61.9735   42.7289 U9         2 LUT      0.068930
    234 H10        70.5121   63.4838   45.3283 U8         2 LUT      0.083911
    235 H1         87.1678   64.1638   30.3517 Q1         2 LUT      0.297311
@<TRIPOS>BOND
    1     6     1 1
    2     7     2 1
    3     8     3 1
    4     9     4 1
    5    11     4 1
    6    12     6 1
    7    13     9 1
    8    16     9 1
    9    25     5 1
   10    25    16 1
   11    26    10 1
   12    26    17 1
   13    27    18 1
   14    28    14 1
   15    28    19 1
   16    29    12 1
   17    30    13 1
   18    31    24 1
   19    32     1 1
   20    32    25 1
   21    33    21 1
   22    33    26 1
   23    34    22 1
   24    34    27 1
   25    35    23 1
   26    35    28 1
   27    36    12 1
   28    36    24 1
   29    37    13 1
   30    37    15 1
   31    38    31 1
   32    39    20 1
   33    39    32 1
   34    40     2 1
   35    40    33 1
   36    41     3 1
   37    41    34 1
   38    42     4 1
   39    42    35 1
   40    43    38 1
   41    44     5 1
   42    44    17 1
   43    44    39 1
   44    45    10 1
   45    45    18 1
   46    45    40 1
   47    46    19 1
   48    46    41 1
   49    47    14 1
   50    47    16 1
   51    47    42 1
   52    48    38 1
   53    49    48 1
   54    50    49 1
   55    51    50 1
   56    52    51 1
   57    53    51 1
   58    54    53 1
   59    55    54 1
   60    56    55 1
   61    57    56 1
   62    58    56 1
   63    59    58 1
   64    60    59 1
   65    61    60 1
   66    62    61 1
   67    63    61 1
   68    64    27 1
   69    64    46 1
   70    65     5 1
   71    65    10 1
   72    65    64 1
   73    65    14 1
   74    66    23 1
   75    67    23 1
   76    68    23 1
   77    69    22 1
   78    70    22 1
   79    71    22 1
   80    72    21 1
   81    73    21 1
   82    74    21 1
   83    75    20 1
   84    76    20 1
   85    77    20 1
   86    78    15 1
   87    79    15 1
   88    80    15 1
   89    81     8 1
   90    82     8 1
   91    83     8 1
   92    84     7 1
   93    85     7 1
   94    86     6 1
   95    87     6 1
   96    88     3 1
   97    89     3 1
   98    90     1 1
   99    91     1 1
  100    92    63 1
  101    93    63 1
  102    94    63 1
  103    95    62 1
  104    96    62 1
  105    97    62 1
  106    98    60 1
  107    99    60 1
  108   100    59 1
  109   101    59 1
  110   102    58 1
  111   103    58 1
  112   104    57 1
  113   105    57 1
  114   106    57 1
  115   107    55 1
  116   108    55 1
  117   109    54 1
  118   110    54 1
  119   111    53 1
  120   112    53 1
  121   113    19 1
  122   114    18 1
  123   115    17 1
  124   116     9 1
  125   117     2 1
  126   118    52 1
  127   119    52 1
  128   120    52 1
  129   121    51 1
  130   122    50 1
  131   123    50 1
  132   124    49 1
  133   125    49 1
  134   126    48 1
  135   127    48 1
  136   128    43 1
  137   129    43 1
  138   130    43 1
  139   131    39 1
  140   132    32 1
  141   133    31 1
  142   134    61 1
  143   135    56 1
  144   136    24 1
  145   137    24 1
  146   139   138 1
  147   140   139 1
  148   141   140 1
  149   142   140 1
  150   143   142 1
  151   144   138 1
  152   144   143 1
  153   145   144 1
  154   146   145 1
  155   147   146 1
  156   148   147 1
  157   149   148 1
  158   150   149 1
  159   151   150 1
  160   152   151 1
  161   153   152 1
  162   154   138 1
  163   155   138 1
  164   156   143 1
  165   157   147 1
  166   158   151 1
  167   160   159 1
  168   161   160 1
  169   162   161 1
  170   163   161 1
  171   164   163 1
  172   165   159 1
  173   165   164 1
  174   166   165 1
  175   167   166 1
  176   168   167 1
  177   169   168 1
  178   170   169 1
  179   171   170 1
  180   172   171 1
  181   173   172 1
  182   174   153 1
  183   174   173 1
  184   175   159 1
  185   176   159 1
  186   177   164 1
  187   178   168 1
  188   179   172 1
  189   180   179 1
  190   181   179 1
  191   182   179 1
  192   183   178 1
  193   184   178 1
  194   185   178 1
  195   186   177 1
  196   187   177 1
  197   188   177 1
  198   189   176 1
  199   190   176 1
  200   191   176 1
  201   192   175 1
  202   193   175 1
  203   194   175 1
  204   195   160 1
  205   196   160 1
  206   197   158 1
  207   198   158 1
  208   199   158 1
  209   200   157 1
  210   201   157 1
  211   202   157 1
  212   203   156 1
  213   204   156 1
  214   205   156 1
  215   206   155 1
  216   207   155 1
  217   208   155 1
  218   209   154 1
  219   210   154 1
  220   211   154 1
  221   212   141 1
  222   213   146 1
  223   214   145 1
  224   215   142 1
  225   216   142 1
  226   217   174 1
  227   218   173 1
  228   219   171 1
  229   220   170 1
  230   221   169 1
  231   222   140 1
  232   223   167 1
  233   224   166 1
  234   225   165 1
  235   226   163 1
  236   227   161 1
  237   228   139 1
  238   229   139 1
  239   230   153 1
  240   231   152 1
  241   232   150 1
  242   233   149 1
  243   234   148 1
  244   235   162 1
  245   65    153 1
  246   65    174 1
@<TRIPOS>SUBSTRUCTURE
      1 CLA               1 ****               0 ****  **** 
      2 LUT             138 ****               0 ****  **** 
