@<TRIPOS>MOLECULE
Cpptraj generated mol2 file.
  235   246     2     0     0
SMALL
USER_CHARGES


@<TRIPOS>ATOM
      1 CAA        80.2054   57.4010   35.5079 a2         1 CLA     -0.055900
      2 CAB        79.7336   61.7039   44.2132 c8         1 CLA     -0.148500
      3 CAC        73.3532   57.2882   44.0312 a2         1 CLA     -0.012600
      4 CAD        76.0840   54.5617   36.8633 ck         1 CLA      0.398800
      5 NA         78.9990   57.8677   38.7694 ns         1 CLA     -0.225500
      6 CBA        81.3556   56.9950   34.6482 a2         1 CLA     -0.135000
      7 CBB        80.8823   61.9930   44.9377 c0         1 CLA     -0.395200
      8 CBC        73.7604   55.8422   44.2187 a3         1 CLA     -0.037700
      9 CBD        77.4584   55.1149   36.4819 a1         1 CLA     -0.053900
     10 NB         78.7453   59.6969   41.1722 nm         1 CLA     -0.295700
     11 OBD        75.6202   53.6032   36.1946 o2         1 CLA     -0.494600
     12 CGA        81.7291   55.5955   34.4314 c4         1 CLA      0.827000
     13 CGD        78.4843   54.0083   36.3868 c4         1 CLA      0.655300
     14 ND         76.1534   57.1613   39.2894 nm         1 CLA     -0.291600
     15 CED        79.2774   51.9300   37.2838 a3         1 CLA      0.005400
     16 CHA        77.6765   56.2128   37.5453 cs         1 CLA     -0.123800
     17 CHB        80.6998   59.3888   39.6880 aa         1 CLA     -0.291900
     18 CHC        77.4743   59.9332   43.2585 aa         1 CLA     -0.090400
     19 CHD        74.3872   56.9645   40.9530 aa         1 CLA     -0.052000
     20 CMA        82.3937   56.8715   38.4123 a3         1 CLA     -0.230700
     21 CMB        82.0750   61.3662   41.7084 a3         1 CLA     -0.180800
     22 CMC        75.1700   59.4918   45.2520 a3         1 CLA     -0.134000
     23 CMD        73.3045   54.7352   38.8160 a3         1 CLA     -0.141100
     24 C1         83.0687   53.8023   35.3263 a2         1 CLA      0.023000
     25 C1A        78.8689   56.9349   37.7106 ac         1 CLA     -0.015100
     26 C1B        80.0436   59.8955   40.8635 cr         1 CLA      0.054700
     27 C1C        76.3046   59.3019   42.9487 cn         1 CLA     -0.005600
     28 C1D        74.9482   56.6553   39.6981 ap         1 CLA     -0.047300
     29 O1A        81.4415   54.8487   33.5098 o2         1 CLA     -0.610800
     30 O1D        79.3979   53.9121   35.5980 o2         1 CLA     -0.558200
     31 C2         83.7550   53.4754   36.6352 c8         1 CLA     -0.325100
     32 C2A        80.2219   56.9159   36.9474 a1         1 CLA      0.098600
     33 C2B        80.6281   60.8365   41.8477 cb         1 CLA      0.088500
     34 C2C        75.2018   59.0552   43.8498 cb         1 CLA      0.053700
     35 C2D        74.4472   55.6574   38.6953 cb         1 CLA      0.058900
     36 O2A        82.5478   55.2046   35.4331 o1         1 CLA     -0.437200
     37 O2D        78.3171   53.0889   37.3585 o1         1 CLA     -0.357600
     38 C3         84.9960   52.9523   36.7355 c5         1 CLA      0.031200
     39 C3A        81.2347   57.7599   37.8207 a1         1 CLA      0.166800
     40 C3B        79.7085   60.9952   42.9200 cb         1 CLA      0.035000
     41 C3C        74.5161   57.9778   43.3317 cb         1 CLA     -0.089900
     42 C3D        75.5105   55.4745   37.8484 cb         1 CLA     -0.035900
     43 C4         85.2301   51.5082   36.6533 a3         1 CLA     -0.053300
     44 C4A        80.2572   58.4284   38.8063 ac         1 CLA      0.001800
     45 C4B        78.6054   60.1323   42.4470 cn         1 CLA     -0.020900
     46 C4C        74.9208   57.8741   41.9343 cr         1 CLA     -0.044400
     47 C4D        76.4839   56.4444   38.1894 c6         1 CLA     -0.046000
     48 C5         86.1724   53.8930   36.8802 a2         1 CLA     -0.070400
     49 C6         86.3822   54.2223   38.4115 a2         1 CLA      0.043900
     50 C7         87.5720   55.0893   38.6620 a2         1 CLA     -0.150000
     51 C8         87.6231   55.9106   40.0170 a1         1 CLA      0.064200
     52 C9         86.7959   57.1433   39.7863 a3         1 CLA     -0.259300
     53 C10        89.1496   56.3303   40.3168 a2         1 CLA     -0.071900
     54 C11        89.3216   57.0312   41.7119 a2         1 CLA      0.014500
     55 C12        89.0285   56.2352   42.9506 a2         1 CLA     -0.112100
     56 C13        89.0018   57.0940   44.1930 a1         1 CLA      0.089200
     57 C14        89.3594   56.2993   45.4260 a3         1 CLA     -0.239100
     58 C15        87.5439   57.7965   44.3389 a2         1 CLA     -0.102200
     59 C16        87.3657   58.6314   45.5807 a2         1 CLA      0.023900
     60 C17        86.0488   59.4217   45.7412 a2         1 CLA     -0.105700
     61 C18        84.7033   58.6103   45.8566 a1         1 CLA      0.206800
     62 C19        84.6778   57.8487   47.2023 a3         1 CLA     -0.280100
     63 C20        83.4434   59.5154   45.6943 a3         1 CLA     -0.280100
     64 NC         76.0531   58.6353   41.7570 nx         1 CLA     -0.309200
     65 MG         77.3915   58.5324   40.1289 mg         1 CLA      0.895000
     66 HMD3       72.7607   54.9038   39.7540 dc         1 CLA      0.064300
     67 HMD2       72.6241   54.9860   37.9978 dc         1 CLA      0.064300
     68 HMD1       73.4942   53.7279   38.6290 dc         1 CLA      0.064300
     69 HMC3       74.1778   59.5697   45.7212 dc         1 CLA      0.052100
     70 HMC2       75.7773   58.8655   45.9107 dc         1 CLA      0.052100
     71 HMC1       75.6104   60.4930   45.0844 dc         1 CLA      0.052100
     72 HMB3       82.1624   62.1439   42.3767 dc         1 CLA      0.063600
     73 HMB2       82.7762   60.5357   41.9557 dc         1 CLA      0.063600
     74 HMB1       82.0703   61.7851   40.6705 dc         1 CLA      0.063600
     75 HMA3       82.7724   57.3301   39.3250 dc         1 CLA      0.058300
     76 HMA2       82.0338   55.9316   38.8094 dc         1 CLA      0.058300
     77 HMA1       83.1325   56.7425   37.6308 dc         1 CLA      0.058300
     78 HED3       79.1911   51.2022   38.0773 dc         1 CLA      0.079300
     79 HED2       79.0943   51.4489   36.3217 dc         1 CLA      0.079300
     80 HED1       80.3532   52.1960   37.4062 dc         1 CLA      0.079300
     81 HBC3       73.7038   55.2363   43.3153 dc         1 CLA      0.016300
     82 HBC2       74.7221   55.8706   44.7912 dc         1 CLA      0.016300
     83 HBC1       72.9645   55.4347   44.8579 dc         1 CLA      0.016300
     84 HBB2       80.7591   62.4144   45.9301 da         1 CLA      0.183000
     85 HBB1       81.9048   61.8939   44.5336 da         1 CLA      0.183000
     86 HBA2       81.0703   57.2144   33.6348 dc         1 CLA      0.029400
     87 HBA1       82.2234   57.6229   34.8831 dc         1 CLA      0.029400
     88 HAC2       73.1630   57.8119   45.0137 dc         1 CLA      0.029300
     89 HAC1       72.4267   57.2757   43.4450 dc         1 CLA      0.029300
     90 HAA2       79.2505   57.1140   35.0923 dc         1 CLA      0.028700
     91 HAA1       80.1865   58.4917   35.6099 dc         1 CLA      0.028700
     92 H203       83.4785   60.2467   46.4392 dc         1 CLA      0.065600
     93 H202       83.5467   59.9869   44.6842 dc         1 CLA      0.065600
     94 H201       82.5301   58.9351   45.6300 dc         1 CLA      0.065600
     95 H193       83.6048   57.4751   47.3409 dc         1 CLA      0.065600
     96 H192       85.4478   57.1250   47.0107 dc         1 CLA      0.065600
     97 H191       84.9513   58.5970   47.9932 dc         1 CLA      0.065600
     98 H172       86.1233   60.2033   46.5412 dc         1 CLA      0.027600
     99 H171       85.8673   59.9681   44.8136 dc         1 CLA      0.027600
    100 H162       87.4788   57.9937   46.5071 dc         1 CLA      0.002900
    101 H161       88.0973   59.4413   45.5349 dc         1 CLA      0.002900
    102 H152       87.2174   58.4367   43.4981 dc         1 CLA      0.029100
    103 H151       86.8271   56.9487   44.3242 dc         1 CLA      0.029100
    104 H143       89.5021   57.0205   46.2229 dc         1 CLA      0.063600
    105 H142       88.4928   55.6857   45.6890 dc         1 CLA      0.063600
    106 H141       90.2561   55.6988   45.2749 dc         1 CLA      0.063600
    107 H122       88.0469   55.7352   42.8923 dc         1 CLA      0.032500
    108 H121       89.7709   55.3918   42.9740 dc         1 CLA      0.032500
    109 H112       90.3409   57.4199   41.6817 dc         1 CLA      0.006600
    110 H111       88.5551   57.8755   41.8232 dc         1 CLA      0.006600
    111 H102       89.8066   55.4635   40.2946 dc         1 CLA      0.024100
    112 H101       89.5039   57.0440   39.5436 dc         1 CLA      0.024100
    113 HHD        73.3903   56.6773   41.1466 da         1 CLA      0.174300
    114 HHC        77.5528   60.2187   44.2712 da         1 CLA      0.136800
    115 HHB        81.7688   59.5756   39.5576 da         1 CLA      0.138300
    116 HBD        77.4872   55.6329   35.5031 dc         1 CLA      0.107700
    117 HAB        78.8152   61.7886   44.7852 da         1 CLA      0.155200
    118 H93        86.7008   57.8415   40.6367 dc         1 CLA      0.069500
    119 H92        87.2438   57.7587   39.0114 dc         1 CLA      0.069500
    120 H91        85.8413   56.9908   39.2771 dc         1 CLA      0.069500
    121 H8         87.1446   55.3000   40.8217 dc         1 CLA      0.029300
    122 H72        88.4703   54.4965   38.6931 dc         1 CLA      0.044400
    123 H71        87.7330   55.7713   37.7343 dc         1 CLA      0.044400
    124 H62        85.4738   54.7460   38.7901 dc         1 CLA      0.015600
    125 H61        86.4160   53.2927   39.0421 dc         1 CLA      0.015600
    126 H52        87.0284   53.2481   36.5795 dc         1 CLA      0.033200
    127 H51        86.1521   54.7342   36.2257 dc         1 CLA      0.033200
    128 H43        84.2814   51.0140   36.4269 dc         1 CLA      0.037000
    129 H42        86.0189   51.1378   35.9945 dc         1 CLA      0.037000
    130 H41        85.5137   51.0976   37.6129 dc         1 CLA      0.037000
    131 H3A        81.6393   58.6149   37.2609 dc         1 CLA      0.041100
    132 H2A        80.6171   55.8635   37.0011 dc         1 CLA      0.083100
    133 H2         83.4011   53.8429   37.5912 da         1 CLA      0.180900
    134 H18        84.5961   57.9645   44.9783 dc         1 CLA     -0.003900
    135 H13        89.7094   57.9694   44.1363 dc         1 CLA      0.019700
    136 H12        82.2675   53.0755   35.2810 dc         1 CLA      0.120400
    137 H11        83.7302   53.6890   34.4588 dc         1 CLA      0.120400
    138 C1         70.2542   61.5562   50.6139 Z1         2 LUT      0.509236
    139 C2         69.0098   61.2967   51.5047 Z2         2 LUT     -0.434695
    140 C3         67.9248   62.4416   51.7424 Z3         2 LUT      0.437453
    141 O3         67.9724   63.1609   52.9925 S1         2 LUT     -0.547129
    142 C4         67.9089   63.4031   50.6158 Z4         2 LUT     -0.468603
    143 C5         68.6402   63.1458   49.3504 Z5         2 LUT      0.279246
    144 C6         69.7721   62.3749   49.3636 Z6         2 LUT     -0.305473
    145 C7         70.3643   61.9594   48.0827 Z7         2 LUT      0.069402
    146 C8         71.6556   62.1309   47.6524 Z8         2 LUT     -0.191631
    147 C9         72.1428   61.8839   46.2765 Z9         2 LUT      0.196698
    148 C10        73.2451   62.5917   45.9084 Y1         2 LUT     -0.208611
    149 C11        73.9734   62.5275   44.6449 Y2         2 LUT      0.030784
    150 C12        75.1158   63.2387   44.4466 Y3         2 LUT     -0.220316
    151 C13        75.9317   63.1898   43.2726 Y4         2 LUT      0.215937
    152 C14        77.1302   63.8310   43.4021 Y5         2 LUT     -0.185793
    153 C15        78.2558   63.9443   42.5999 Y6         2 LUT     -0.057835
    154 C16        71.0458   60.3218   50.3364 Y7         2 LUT     -0.405615
    155 C17        71.2164   62.4620   51.3841 Y7         2 LUT     -0.405615
    156 C18        68.1030   63.9471   48.1401 Y9         2 LUT     -0.369639
    157 C19        71.4982   60.7278   45.5008 W1         2 LUT     -0.333362
    158 C20        75.4486   62.5704   41.9185 W2         2 LUT     -0.323439
    159 C21        89.3262   65.2133   36.4191 Z1         2 LUT      0.406104
    160 C22        89.9656   64.2892   35.3290 Z2         2 LUT     -0.404965
    161 C23        90.0510   64.7709   33.8937 Z3         2 LUT      0.391255
    162 O23        90.4989   63.6422   33.1294 S1         2 LUT     -0.528210
    163 C24        88.8073   65.5472   33.5258 W6         2 LUT     -0.258361
    164 C25        87.7964   65.9197   34.3503 Z5         2 LUT      0.133546
    165 C26        87.8607   65.5716   35.8494 W8         2 LUT     -0.147008
    166 C27        87.0892   66.4558   36.7843 Z7         2 LUT      0.023843
    167 C28        85.9520   65.9784   37.4164 Z8         2 LUT     -0.216987
    168 C29        85.3403   66.5863   38.6164 Z9         2 LUT      0.206524
    169 C30        84.2440   65.8807   39.1100 Y1         2 LUT     -0.215556
    170 C31        83.4541   66.1229   40.3149 Y2         2 LUT      0.025142
    171 C32        82.4011   65.3135   40.7658 Y3         2 LUT     -0.212209
    172 C33        81.5405   65.4487   41.8371 Y4         2 LUT      0.240937
    173 C34        80.4079   64.6838   41.8378 Y5         2 LUT     -0.218862
    174 C35        79.3339   64.7275   42.8620 Y6         2 LUT     -0.023547
    175 C36        90.1523   66.4973   36.4859 Y7         2 LUT     -0.393485
    176 C37        89.2790   64.3849   37.7922 Y7         2 LUT     -0.393485
    177 C38        86.5274   66.3857   33.7550 Y9         2 LUT     -0.387526
    178 C39        86.0893   67.7261   39.1843 W1         2 LUT     -0.322618
    179 C40        81.7652   66.5916   42.7682 W2         2 LUT     -0.358472
    180 H403       82.7859   66.5979   43.1335 R7         2 LUT      0.097720
    181 H402       81.5769   67.4997   42.1820 R7         2 LUT      0.097720
    182 H401       81.1842   66.6370   43.7035 R7         2 LUT      0.097720
    183 H393       85.6403   68.0470   40.1277 R4         2 LUT      0.082505
    184 H392       87.0914   67.3639   39.3133 R4         2 LUT      0.082505
    185 H391       86.1100   68.5756   38.5478 R4         2 LUT      0.082505
    186 H383       86.3677   65.9756   32.7643 R1         2 LUT      0.104030
    187 H382       85.6013   66.1307   34.3334 R1         2 LUT      0.104030
    188 H381       86.5681   67.4698   33.7052 R1         2 LUT      0.104030
    189 H373       90.1530   63.7342   37.9602 T4         2 LUT      0.089537
    190 H372       89.1725   65.1162   38.5910 T4         2 LUT      0.089537
    191 H371       88.4623   63.6913   37.7121 T4         2 LUT      0.089537
    192 H363       89.8267   66.9386   37.4328 T4         2 LUT      0.089537
    193 H362       91.1988   66.3669   36.6804 T4         2 LUT      0.089537
    194 H361       90.0689   67.1694   35.6387 T4         2 LUT      0.089537
    195 H222       90.9591   63.9475   35.6318 U2         2 LUT      0.127376
    196 H221       89.3168   63.3993   35.3320 U2         2 LUT      0.127376
    197 H203       74.3915   62.6358   41.6616 R7         2 LUT      0.087068
    198 H202       76.0426   62.9062   41.0883 R7         2 LUT      0.087068
    199 H201       75.6957   61.5524   41.8123 R7         2 LUT      0.087068
    200 H193       71.9926   60.4924   44.5744 R4         2 LUT      0.089716
    201 H192       71.5238   59.8874   46.1753 R4         2 LUT      0.089716
    202 H191       70.4937   60.9340   45.1827 R4         2 LUT      0.089716
    203 H183       67.0311   63.9989   48.2283 R1         2 LUT      0.094572
    204 H182       68.6575   64.9567   48.1114 R1         2 LUT      0.094572
    205 H181       68.2705   63.3410   47.2030 R1         2 LUT      0.094572
    206 H173       70.7079   63.3922   51.6271 T4         2 LUT      0.093752
    207 H172       71.4712   62.1388   52.3688 T4         2 LUT      0.093752
    208 H171       72.1972   62.6323   50.8888 T4         2 LUT      0.093752
    209 H163       72.0570   60.5905   50.0067 T4         2 LUT      0.093752
    210 H162       71.1929   59.7058   51.2875 T4         2 LUT      0.093752
    211 H161       70.7527   59.6658   49.4720 T4         2 LUT      0.093752
    212 HO3        67.8692   62.5078   53.6970 Q1         2 LUT      0.300121
    213 H8         72.3545   62.6743   48.2443 U7         2 LUT      0.080784
    214 H7         69.6522   61.5744   47.3643 U6         2 LUT      0.042190
    215 H42        66.8660   63.8106   50.4597 U5         2 LUT      0.145166
    216 H41        68.4623   64.3327   51.0953 U5         2 LUT      0.145166
    217 H35        79.2998   65.4189   43.7013 T3         2 LUT      0.077919
    218 H34        80.2680   63.9645   41.0537 T2         2 LUT      0.073626
    219 H32        82.1015   64.5197   40.0642 T1         2 LUT      0.092510
    220 H31        83.6696   66.9748   40.9623 U9         2 LUT      0.070048
    221 H30        83.7369   65.1547   38.5890 U8         2 LUT      0.085442
    222 H3         66.9862   61.9381   51.7349 U3         2 LUT     -0.031596
    223 H28        85.5879   64.9845   37.2821 U7         2 LUT      0.084728
    224 H27        87.4800   67.4304   37.1616 U6         2 LUT      0.087291
    225 H26        87.3510   64.6357   35.6881 Q6         2 LUT      0.075325
    226 H24        88.7619   66.0097   32.5482 Q5         2 LUT      0.094482
    227 H23        90.7432   65.5522   34.0224 U3         2 LUT     -0.024869
    228 H22        68.4249   60.5156   50.9161 U2         2 LUT      0.127376
    229 H21        69.2304   60.8618   52.5174 U2         2 LUT      0.127376
    230 H15        78.3153   63.3294   41.7352 T3         2 LUT      0.093200
    231 H14        77.2937   64.3444   44.3339 T2         2 LUT      0.068865
    232 H12        75.5001   63.8058   45.2685 T1         2 LUT      0.095507
    233 H11        73.5509   61.8670   43.9359 U9         2 LUT      0.068930
    234 H10        73.5928   63.4171   46.4807 U8         2 LUT      0.083911
    235 H1         90.7485   63.7755   32.2165 Q1         2 LUT      0.297311
@<TRIPOS>BOND
    1     6     1 1
    2     7     2 1
    3     8     3 1
    4     9     4 1
    5    11     4 1
    6    12     6 1
    7    13     9 1
    8    16     9 1
    9    25     5 1
   10    25    16 1
   11    26    10 1
   12    26    17 1
   13    27    18 1
   14    28    14 1
   15    28    19 1
   16    29    12 1
   17    30    13 1
   18    31    24 1
   19    32     1 1
   20    32    25 1
   21    33    21 1
   22    33    26 1
   23    34    22 1
   24    34    27 1
   25    35    23 1
   26    35    28 1
   27    36    12 1
   28    36    24 1
   29    37    13 1
   30    37    15 1
   31    38    31 1
   32    39    20 1
   33    39    32 1
   34    40     2 1
   35    40    33 1
   36    41     3 1
   37    41    34 1
   38    42     4 1
   39    42    35 1
   40    43    38 1
   41    44     5 1
   42    44    17 1
   43    44    39 1
   44    45    10 1
   45    45    18 1
   46    45    40 1
   47    46    19 1
   48    46    41 1
   49    47    14 1
   50    47    16 1
   51    47    42 1
   52    48    38 1
   53    49    48 1
   54    50    49 1
   55    51    50 1
   56    52    51 1
   57    53    51 1
   58    54    53 1
   59    55    54 1
   60    56    55 1
   61    57    56 1
   62    58    56 1
   63    59    58 1
   64    60    59 1
   65    61    60 1
   66    62    61 1
   67    63    61 1
   68    64    27 1
   69    64    46 1
   70    65     5 1
   71    65    10 1
   72    65    64 1
   73    65    14 1
   74    66    23 1
   75    67    23 1
   76    68    23 1
   77    69    22 1
   78    70    22 1
   79    71    22 1
   80    72    21 1
   81    73    21 1
   82    74    21 1
   83    75    20 1
   84    76    20 1
   85    77    20 1
   86    78    15 1
   87    79    15 1
   88    80    15 1
   89    81     8 1
   90    82     8 1
   91    83     8 1
   92    84     7 1
   93    85     7 1
   94    86     6 1
   95    87     6 1
   96    88     3 1
   97    89     3 1
   98    90     1 1
   99    91     1 1
  100    92    63 1
  101    93    63 1
  102    94    63 1
  103    95    62 1
  104    96    62 1
  105    97    62 1
  106    98    60 1
  107    99    60 1
  108   100    59 1
  109   101    59 1
  110   102    58 1
  111   103    58 1
  112   104    57 1
  113   105    57 1
  114   106    57 1
  115   107    55 1
  116   108    55 1
  117   109    54 1
  118   110    54 1
  119   111    53 1
  120   112    53 1
  121   113    19 1
  122   114    18 1
  123   115    17 1
  124   116     9 1
  125   117     2 1
  126   118    52 1
  127   119    52 1
  128   120    52 1
  129   121    51 1
  130   122    50 1
  131   123    50 1
  132   124    49 1
  133   125    49 1
  134   126    48 1
  135   127    48 1
  136   128    43 1
  137   129    43 1
  138   130    43 1
  139   131    39 1
  140   132    32 1
  141   133    31 1
  142   134    61 1
  143   135    56 1
  144   136    24 1
  145   137    24 1
  146   139   138 1
  147   140   139 1
  148   141   140 1
  149   142   140 1
  150   143   142 1
  151   144   138 1
  152   144   143 1
  153   145   144 1
  154   146   145 1
  155   147   146 1
  156   148   147 1
  157   149   148 1
  158   150   149 1
  159   151   150 1
  160   152   151 1
  161   153   152 1
  162   154   138 1
  163   155   138 1
  164   156   143 1
  165   157   147 1
  166   158   151 1
  167   160   159 1
  168   161   160 1
  169   162   161 1
  170   163   161 1
  171   164   163 1
  172   165   159 1
  173   165   164 1
  174   166   165 1
  175   167   166 1
  176   168   167 1
  177   169   168 1
  178   170   169 1
  179   171   170 1
  180   172   171 1
  181   173   172 1
  182   174   153 1
  183   174   173 1
  184   175   159 1
  185   176   159 1
  186   177   164 1
  187   178   168 1
  188   179   172 1
  189   180   179 1
  190   181   179 1
  191   182   179 1
  192   183   178 1
  193   184   178 1
  194   185   178 1
  195   186   177 1
  196   187   177 1
  197   188   177 1
  198   189   176 1
  199   190   176 1
  200   191   176 1
  201   192   175 1
  202   193   175 1
  203   194   175 1
  204   195   160 1
  205   196   160 1
  206   197   158 1
  207   198   158 1
  208   199   158 1
  209   200   157 1
  210   201   157 1
  211   202   157 1
  212   203   156 1
  213   204   156 1
  214   205   156 1
  215   206   155 1
  216   207   155 1
  217   208   155 1
  218   209   154 1
  219   210   154 1
  220   211   154 1
  221   212   141 1
  222   213   146 1
  223   214   145 1
  224   215   142 1
  225   216   142 1
  226   217   174 1
  227   218   173 1
  228   219   171 1
  229   220   170 1
  230   221   169 1
  231   222   140 1
  232   223   167 1
  233   224   166 1
  234   225   165 1
  235   226   163 1
  236   227   161 1
  237   228   139 1
  238   229   139 1
  239   230   153 1
  240   231   152 1
  241   232   150 1
  242   233   149 1
  243   234   148 1
  244   235   162 1
  245   65    153 1
  246   65    174 1
@<TRIPOS>SUBSTRUCTURE
      1 CLA               1 ****               0 ****  **** 
      2 LUT             138 ****               0 ****  **** 
