@<TRIPOS>MOLECULE
Cpptraj generated mol2 file.
  235   246     2     0     0
SMALL
USER_CHARGES


@<TRIPOS>ATOM
      1 CAA        79.4598   58.2798   34.0044 a2         1 CLA     -0.055900
      2 CAB        79.1992   62.2419   43.0741 c8         1 CLA     -0.148500
      3 CAC        72.5137   57.8736   42.4636 a2         1 CLA     -0.012600
      4 CAD        75.3365   55.6765   35.1727 ck         1 CLA      0.398800
      5 NA         78.3466   58.8126   37.3948 ns         1 CLA     -0.225500
      6 CBA        80.7429   58.3215   33.2219 a2         1 CLA     -0.135000
      7 CBB        80.3197   62.3007   43.8240 c0         1 CLA     -0.395200
      8 CBC        72.6130   56.3315   42.4966 a3         1 CLA     -0.037700
      9 CBD        76.7819   56.2213   34.8727 a1         1 CLA     -0.053900
     10 NB         78.2234   60.1991   40.0692 nm         1 CLA     -0.295700
     11 OBD        74.7778   54.9125   34.3832 o2         1 CLA     -0.494600
     12 CGA        81.3969   56.9871   32.8241 c4         1 CLA      0.827000
     13 CGD        77.7085   55.1006   34.7067 c4         1 CLA      0.655300
     14 ND         75.6571   57.7586   37.9816 nm         1 CLA     -0.291600
     15 CED        78.3012   52.8533   35.5433 a3         1 CLA      0.005400
     16 CHA        77.1145   57.2325   36.0178 cs         1 CLA     -0.123800
     17 CHB        80.0970   60.0395   38.5444 aa         1 CLA     -0.291900
     18 CHC        76.6943   60.7596   41.8760 aa         1 CLA     -0.090400
     19 CHD        73.7204   57.6846   39.4887 aa         1 CLA     -0.052000
     20 CMA        81.7366   58.0635   36.8715 a3         1 CLA     -0.230700
     21 CMB        81.4659   61.9831   40.6334 a3         1 CLA     -0.180800
     22 CMC        74.4015   60.1352   43.9296 a3         1 CLA     -0.134000
     23 CMD        72.5303   55.6175   37.3757 a3         1 CLA     -0.141100
     24 C1         82.2231   55.0386   33.7883 a2         1 CLA      0.023000
     25 C1A        78.2825   57.9683   36.3048 ac         1 CLA     -0.015100
     26 C1B        79.5218   60.5443   39.7260 cr         1 CLA      0.054700
     27 C1C        75.5931   59.9249   41.6289 cn         1 CLA     -0.005600
     28 C1D        74.4058   57.2970   38.3595 ap         1 CLA     -0.047300
     29 O1A        81.4245   56.4845   31.6668 o2         1 CLA     -0.610800
     30 O1D        78.6649   54.9911   33.9405 o2         1 CLA     -0.558200
     31 C2         82.8753   54.6232   35.1428 c8         1 CLA     -0.325100
     32 C2A        79.5416   57.8772   35.5018 a1         1 CLA      0.098600
     33 C2B        80.1194   61.3481   40.7858 cb         1 CLA      0.088500
     34 C2C        74.4659   59.5590   42.5136 cb         1 CLA      0.053700
     35 C2D        73.8448   56.3934   37.3176 cb         1 CLA      0.058900
     36 O2A        81.9479   56.4876   33.9618 o1         1 CLA     -0.437200
     37 O2D        77.4677   54.0884   35.6461 o1         1 CLA     -0.357600
     38 C3         84.0098   53.8716   35.3774 c5         1 CLA      0.031200
     39 C3A        80.5319   58.7873   36.3602 a1         1 CLA      0.166800
     40 C3B        79.1413   61.5129   41.7721 cb         1 CLA      0.035000
     41 C3C        73.6853   58.5852   41.8419 cb         1 CLA     -0.089900
     42 C3D        74.9093   56.2781   36.4213 cb         1 CLA     -0.035900
     43 C4         83.9686   52.3716   35.2336 a3         1 CLA     -0.053300
     44 C4A        79.6776   59.2104   37.5403 ac         1 CLA      0.001800
     45 C4B        77.9110   60.7808   41.2441 cn         1 CLA     -0.020900
     46 C4C        74.2419   58.4670   40.5609 cr         1 CLA     -0.044400
     47 C4D        75.9415   57.2063   36.8128 c6         1 CLA     -0.046000
     48 C5         85.4580   54.4376   35.5686 a2         1 CLA     -0.070400
     49 C6         85.4698   55.7122   36.4136 a2         1 CLA      0.043900
     50 C7         85.7650   55.3153   37.7851 a2         1 CLA     -0.150000
     51 C8         85.7487   56.4693   38.7720 a1         1 CLA      0.064200
     52 C9         86.9342   57.4896   38.4988 a3         1 CLA     -0.259300
     53 C10        85.7485   55.9469   40.2517 a2         1 CLA     -0.071900
     54 C11        86.0963   57.1103   41.3318 a2         1 CLA      0.014500
     55 C12        85.9353   56.6752   42.7802 a2         1 CLA     -0.112100
     56 C13        86.3132   57.6513   43.9444 a1         1 CLA      0.089200
     57 C14        87.8038   58.1000   43.9296 a3         1 CLA     -0.239100
     58 C15        85.8901   57.1205   45.3088 a2         1 CLA     -0.102200
     59 C16        85.8788   58.1313   46.4793 a2         1 CLA      0.023900
     60 C17        85.3141   57.5280   47.7769 a2         1 CLA     -0.105700
     61 C18        85.2415   58.4710   48.9476 a1         1 CLA      0.206800
     62 C19        84.5478   59.8018   48.5571 a3         1 CLA     -0.280100
     63 C20        84.4893   57.7667   50.0735 a3         1 CLA     -0.280100
     64 NC         75.4139   59.1690   40.4705 nx         1 CLA     -0.309200
     65 MG         76.8981   58.9958   38.9265 mg         1 CLA      0.895000
     66 HMD3       72.3029   55.2770   38.3842 dc         1 CLA      0.064300
     67 HMD2       71.6645   56.1477   37.0853 dc         1 CLA      0.064300
     68 HMD1       72.6087   54.7810   36.7118 dc         1 CLA      0.064300
     69 HMC3       74.7331   61.1635   43.8775 dc         1 CLA      0.052100
     70 HMC2       73.3840   60.1932   44.3282 dc         1 CLA      0.052100
     71 HMC1       74.9828   59.4043   44.5009 dc         1 CLA      0.052100
     72 HMB3       81.5255   63.0068   41.0970 dc         1 CLA      0.063600
     73 HMB2       82.2711   61.3317   40.9796 dc         1 CLA      0.063600
     74 HMB1       81.5931   62.1644   39.5421 dc         1 CLA      0.063600
     75 HMA3       82.3554   57.6383   36.1137 dc         1 CLA      0.058300
     76 HMA2       82.3778   58.7602   37.3215 dc         1 CLA      0.058300
     77 HMA1       81.4396   57.2546   37.5037 dc         1 CLA      0.058300
     78 HED3       77.8510   52.0256   36.1359 dc         1 CLA      0.079300
     79 HED2       78.3133   52.5984   34.4682 dc         1 CLA      0.079300
     80 HED1       79.2270   53.1638   35.8472 dc         1 CLA      0.079300
     81 HBC3       72.5482   55.8870   41.4926 dc         1 CLA      0.016300
     82 HBC2       73.6365   56.1579   42.8669 dc         1 CLA      0.016300
     83 HBC1       71.8646   55.8758   43.2019 dc         1 CLA      0.016300
     84 HBB2       80.3218   62.8076   44.7789 da         1 CLA      0.183000
     85 HBB1       81.2548   61.7923   43.4880 da         1 CLA      0.183000
     86 HBA2       80.5217   58.7879   32.2094 dc         1 CLA      0.029400
     87 HBA1       81.4269   58.9365   33.7329 dc         1 CLA      0.029400
     88 HAC2       72.3417   58.2604   43.4499 dc         1 CLA      0.029300
     89 HAC1       71.5998   58.2579   41.9615 dc         1 CLA      0.029300
     90 HAA2       78.8359   57.6112   33.4381 dc         1 CLA      0.028700
     91 HAA1       78.9722   59.2317   33.8707 dc         1 CLA      0.028700
     92 H203       83.4148   57.7940   49.8291 dc         1 CLA      0.065600
     93 H202       84.9044   56.7291   50.1017 dc         1 CLA      0.065600
     94 H201       84.6811   58.3052   51.0550 dc         1 CLA      0.065600
     95 H193       83.5948   59.5555   48.0388 dc         1 CLA      0.065600
     96 H192       84.2537   60.2297   49.4983 dc         1 CLA      0.065600
     97 H191       85.0935   60.5355   47.9873 dc         1 CLA      0.065600
     98 H172       84.3801   56.9112   47.6180 dc         1 CLA      0.027600
     99 H171       85.9949   56.7735   48.1342 dc         1 CLA      0.027600
    100 H162       86.9171   58.3683   46.7935 dc         1 CLA      0.002900
    101 H161       85.2860   58.9655   46.1067 dc         1 CLA      0.002900
    102 H152       84.8220   56.8981   45.2156 dc         1 CLA      0.029100
    103 H151       86.4248   56.2076   45.5704 dc         1 CLA      0.029100
    104 H143       88.1947   58.0235   44.9198 dc         1 CLA      0.063600
    105 H142       88.4790   57.6060   43.2596 dc         1 CLA      0.063600
    106 H141       87.6761   59.0721   43.5770 dc         1 CLA      0.063600
    107 H122       84.9003   56.3586   42.8646 dc         1 CLA      0.032500
    108 H121       86.5595   55.8310   42.8980 dc         1 CLA      0.032500
    109 H112       87.1383   57.4456   41.1242 dc         1 CLA      0.006600
    110 H111       85.4308   57.9179   41.1044 dc         1 CLA      0.006600
    111 H102       84.8159   55.4921   40.4720 dc         1 CLA      0.024100
    112 H101       86.5115   55.1332   40.3197 dc         1 CLA      0.024100
    113 HHD        72.7267   57.3041   39.6797 da         1 CLA      0.174300
    114 HHC        76.7385   61.3410   42.7558 da         1 CLA      0.136800
    115 HHB        81.0844   60.5014   38.3553 da         1 CLA      0.138300
    116 HBD        76.7912   56.7689   33.9384 dc         1 CLA      0.107700
    117 HAB        78.2562   62.7224   43.4648 da         1 CLA      0.155200
    118 H93        87.8615   57.0379   38.8496 dc         1 CLA      0.069500
    119 H92        87.1833   57.7214   37.4700 dc         1 CLA      0.069500
    120 H91        86.7037   58.3910   39.1447 dc         1 CLA      0.069500
    121 H8         84.6874   56.9383   38.6466 dc         1 CLA      0.029300
    122 H72        84.9964   54.5856   38.0121 dc         1 CLA      0.044400
    123 H71        86.7685   54.9533   37.8806 dc         1 CLA      0.044400
    124 H62        86.2213   56.4522   36.0589 dc         1 CLA      0.015600
    125 H61        84.4596   56.1909   36.2570 dc         1 CLA      0.015600
    126 H52        86.1427   53.6471   35.8949 dc         1 CLA      0.033200
    127 H51        85.7119   54.8038   34.5656 dc         1 CLA      0.033200
    128 H43        84.4009   51.9946   36.1035 dc         1 CLA      0.037000
    129 H42        82.9241   51.9763   35.2030 dc         1 CLA      0.037000
    130 H41        84.6568   52.0058   34.4628 dc         1 CLA      0.037000
    131 H3A        80.9245   59.6490   35.7459 dc         1 CLA      0.041100
    132 H2A        79.8402   56.8328   35.5628 dc         1 CLA      0.083100
    133 H2         82.2507   54.8635   36.0312 da         1 CLA      0.180900
    134 H18        86.2769   58.5465   49.2985 dc         1 CLA     -0.003900
    135 H13        85.7632   58.6089   43.7890 dc         1 CLA      0.019700
    136 H12        81.2765   54.5159   33.7818 dc         1 CLA      0.120400
    137 H11        82.9496   54.7308   32.9784 dc         1 CLA      0.120400
    138 C1         68.2489   61.5269   49.9014 Z1         2 LUT      0.509236
    139 C2         66.9445   61.2905   50.6135 Z2         2 LUT     -0.434695
    140 C3         65.9747   62.3946   50.6321 Z3         2 LUT      0.437453
    141 O3         65.8217   62.7037   52.0271 S1         2 LUT     -0.547129
    142 C4         66.3130   63.5804   49.8333 Z4         2 LUT     -0.468603
    143 C5         67.2464   63.4141   48.6314 Z5         2 LUT      0.279246
    144 C6         68.1626   62.3629   48.6175 Z6         2 LUT     -0.305473
    145 C7         68.7861   61.9715   47.3289 Z7         2 LUT      0.069402
    146 C8         69.8962   62.6033   46.7752 Z8         2 LUT     -0.191631
    147 C9         70.4890   62.3257   45.5835 Z9         2 LUT      0.196698
    148 C10        71.6458   62.9468   45.1254 Y1         2 LUT     -0.208611
    149 C11        72.3487   62.8450   43.8676 Y2         2 LUT      0.030784
    150 C12        73.5112   63.4246   43.5972 Y3         2 LUT     -0.220316
    151 C13        74.2731   63.4889   42.3540 Y4         2 LUT      0.215937
    152 C14        75.5141   64.1517   42.2312 Y5         2 LUT     -0.185793
    153 C15        76.5446   64.2731   41.1781 Y6         2 LUT     -0.057835
    154 C16        68.8757   60.1438   49.7108 Y7         2 LUT     -0.405615
    155 C17        69.0853   62.3489   50.9051 Y7         2 LUT     -0.405615
    156 C18        66.9508   64.3253   47.4415 Y9         2 LUT     -0.369639
    157 C19        69.9295   61.2715   44.5915 W1         2 LUT     -0.333362
    158 C20        73.7707   62.7536   41.1352 W2         2 LUT     -0.323439
    159 C21        87.9641   65.6925   35.2882 Z1         2 LUT      0.406104
    160 C22        88.7208   65.2653   33.9858 Z2         2 LUT     -0.404965
    161 C23        88.8247   66.3154   32.9444 Z3         2 LUT      0.391255
    162 O23        89.7632   65.8277   31.9689 S1         2 LUT     -0.528210
    163 C24        87.4961   66.8391   32.5310 W6         2 LUT     -0.258361
    164 C25        86.4377   66.8481   33.3175 Z5         2 LUT      0.133546
    165 C26        86.4714   66.1521   34.7087 W8         2 LUT     -0.147008
    166 C27        85.7495   66.8701   35.8120 Z7         2 LUT      0.023843
    167 C28        84.5973   66.3312   36.1585 Z8         2 LUT     -0.216987
    168 C29        83.9120   66.5312   37.4370 Z9         2 LUT      0.206524
    169 C30        82.8340   65.7777   37.8169 Y1         2 LUT     -0.215556
    170 C31        82.1303   65.9539   39.0756 Y2         2 LUT      0.025142
    171 C32        80.9316   65.3616   39.3358 Y3         2 LUT     -0.212209
    172 C33        80.0476   65.4574   40.4955 Y4         2 LUT      0.240937
    173 C34        78.7898   64.8384   40.4595 Y5         2 LUT     -0.218862
    174 C35        77.7601   64.7952   41.3998 Y6         2 LUT     -0.023547
    175 C36        88.7697   66.8406   35.9994 Y7         2 LUT     -0.393485
    176 C37        87.9787   64.5116   36.2886 Y7         2 LUT     -0.393485
    177 C38        85.1631   67.5750   32.9410 Y9         2 LUT     -0.387526
    178 C39        84.4749   67.6150   38.3850 W1         2 LUT     -0.322618
    179 C40        80.6874   66.3078   41.6741 W2         2 LUT     -0.358472
    180 H403       80.9199   67.2912   41.1990 R7         2 LUT      0.097720
    181 H402       80.0320   66.3914   42.5745 R7         2 LUT      0.097720
    182 H401       81.6512   65.8198   41.8787 R7         2 LUT      0.097720
    183 H393       85.1293   68.4048   37.9738 R4         2 LUT      0.082505
    184 H392       83.6546   68.1008   38.9344 R4         2 LUT      0.082505
    185 H391       85.0287   67.1055   39.0780 R4         2 LUT      0.082505
    186 H383       85.4045   68.3807   32.2072 R1         2 LUT      0.104030
    187 H382       84.4294   66.8817   32.3507 R1         2 LUT      0.104030
    188 H381       84.5856   68.1114   33.7187 R1         2 LUT      0.104030
    189 H373       87.8325   63.6169   35.7797 T4         2 LUT      0.089537
    190 H372       88.9242   64.2392   36.7479 T4         2 LUT      0.089537
    191 H371       87.1572   64.5679   36.9850 T4         2 LUT      0.089537
    192 H363       88.2884   66.9036   36.9723 T4         2 LUT      0.089537
    193 H362       89.7971   66.6679   36.2385 T4         2 LUT      0.089537
    194 H361       88.5766   67.8672   35.4777 T4         2 LUT      0.089537
    195 H222       89.6596   64.8901   34.2283 U2         2 LUT      0.127376
    196 H221       88.1587   64.4315   33.5723 U2         2 LUT      0.127376
    197 H203       74.4443   62.8987   40.3581 R7         2 LUT      0.087068
    198 H202       73.6820   61.6616   41.2086 R7         2 LUT      0.087068
    199 H201       72.8484   63.1143   40.7727 R7         2 LUT      0.087068
    200 H193       70.4621   60.3528   44.6022 R4         2 LUT      0.089716
    201 H192       68.8991   60.9090   44.6682 R4         2 LUT      0.089716
    202 H191       70.0023   61.5390   43.5164 R4         2 LUT      0.089716
    203 H183       66.5840   63.8374   46.5318 R1         2 LUT      0.094572
    204 H182       66.2745   65.1396   47.6537 R1         2 LUT      0.094572
    205 H181       67.8102   64.8732   47.2115 R1         2 LUT      0.094572
    206 H173       69.9825   62.6311   50.3606 T4         2 LUT      0.093752
    207 H172       68.5601   63.2373   51.1551 T4         2 LUT      0.093752
    208 H171       69.2447   61.7402   51.8292 T4         2 LUT      0.093752
    209 H163       68.2868   59.5961   49.0468 T4         2 LUT      0.093752
    210 H162       69.9413   60.2014   49.3655 T4         2 LUT      0.093752
    211 H161       68.8633   59.5056   50.5735 T4         2 LUT      0.093752
    212 HO3        65.0958   62.1522   52.4438 Q1         2 LUT      0.300121
    213 H8         70.3867   63.3152   47.4202 U7         2 LUT      0.080784
    214 H7         68.4285   61.1044   46.8785 U6         2 LUT      0.042190
    215 H42        65.4162   64.0768   49.4933 U5         2 LUT      0.145166
    216 H41        66.8786   64.3370   50.4670 U5         2 LUT      0.145166
    217 H35        78.0780   65.2511   42.3570 T3         2 LUT      0.077919
    218 H34        78.5410   64.3597   39.4593 T2         2 LUT      0.073626
    219 H32        80.5684   64.6394   38.5283 T1         2 LUT      0.092510
    220 H31        82.5360   66.6608   39.7579 U9         2 LUT      0.070048
    221 H30        82.3835   65.0650   37.0327 U8         2 LUT      0.085442
    222 H3         65.1333   62.0858   50.0761 U3         2 LUT     -0.031596
    223 H28        84.2318   65.5259   35.5245 U7         2 LUT      0.084728
    224 H27        86.2059   67.6520   36.4428 U6         2 LUT      0.087291
    225 H26        85.8903   65.2694   34.4573 Q6         2 LUT      0.075325
    226 H24        87.3168   67.2829   31.4882 Q5         2 LUT      0.094482
    227 H23        89.4088   67.0752   33.4091 U3         2 LUT     -0.024869
    228 H22        66.4021   60.3971   50.1672 U2         2 LUT      0.127376
    229 H21        67.1736   60.8536   51.5503 U2         2 LUT      0.127376
    230 H15        76.4756   63.7589   40.1974 T3         2 LUT      0.093200
    231 H14        75.8453   64.5013   43.1739 T2         2 LUT      0.068865
    232 H12        73.9100   63.9898   44.4478 T1         2 LUT      0.095507
    233 H11        71.7819   62.4248   43.0085 U9         2 LUT      0.068930
    234 H10        72.1421   63.6557   45.8435 U8         2 LUT      0.083911
    235 H1         89.3623   65.0550   31.4470 Q1         2 LUT      0.297311
@<TRIPOS>BOND
    1     6     1 1
    2     7     2 1
    3     8     3 1
    4     9     4 1
    5    11     4 1
    6    12     6 1
    7    13     9 1
    8    16     9 1
    9    25     5 1
   10    25    16 1
   11    26    10 1
   12    26    17 1
   13    27    18 1
   14    28    14 1
   15    28    19 1
   16    29    12 1
   17    30    13 1
   18    31    24 1
   19    32     1 1
   20    32    25 1
   21    33    21 1
   22    33    26 1
   23    34    22 1
   24    34    27 1
   25    35    23 1
   26    35    28 1
   27    36    12 1
   28    36    24 1
   29    37    13 1
   30    37    15 1
   31    38    31 1
   32    39    20 1
   33    39    32 1
   34    40     2 1
   35    40    33 1
   36    41     3 1
   37    41    34 1
   38    42     4 1
   39    42    35 1
   40    43    38 1
   41    44     5 1
   42    44    17 1
   43    44    39 1
   44    45    10 1
   45    45    18 1
   46    45    40 1
   47    46    19 1
   48    46    41 1
   49    47    14 1
   50    47    16 1
   51    47    42 1
   52    48    38 1
   53    49    48 1
   54    50    49 1
   55    51    50 1
   56    52    51 1
   57    53    51 1
   58    54    53 1
   59    55    54 1
   60    56    55 1
   61    57    56 1
   62    58    56 1
   63    59    58 1
   64    60    59 1
   65    61    60 1
   66    62    61 1
   67    63    61 1
   68    64    27 1
   69    64    46 1
   70    65     5 1
   71    65    10 1
   72    65    64 1
   73    65    14 1
   74    66    23 1
   75    67    23 1
   76    68    23 1
   77    69    22 1
   78    70    22 1
   79    71    22 1
   80    72    21 1
   81    73    21 1
   82    74    21 1
   83    75    20 1
   84    76    20 1
   85    77    20 1
   86    78    15 1
   87    79    15 1
   88    80    15 1
   89    81     8 1
   90    82     8 1
   91    83     8 1
   92    84     7 1
   93    85     7 1
   94    86     6 1
   95    87     6 1
   96    88     3 1
   97    89     3 1
   98    90     1 1
   99    91     1 1
  100    92    63 1
  101    93    63 1
  102    94    63 1
  103    95    62 1
  104    96    62 1
  105    97    62 1
  106    98    60 1
  107    99    60 1
  108   100    59 1
  109   101    59 1
  110   102    58 1
  111   103    58 1
  112   104    57 1
  113   105    57 1
  114   106    57 1
  115   107    55 1
  116   108    55 1
  117   109    54 1
  118   110    54 1
  119   111    53 1
  120   112    53 1
  121   113    19 1
  122   114    18 1
  123   115    17 1
  124   116     9 1
  125   117     2 1
  126   118    52 1
  127   119    52 1
  128   120    52 1
  129   121    51 1
  130   122    50 1
  131   123    50 1
  132   124    49 1
  133   125    49 1
  134   126    48 1
  135   127    48 1
  136   128    43 1
  137   129    43 1
  138   130    43 1
  139   131    39 1
  140   132    32 1
  141   133    31 1
  142   134    61 1
  143   135    56 1
  144   136    24 1
  145   137    24 1
  146   139   138 1
  147   140   139 1
  148   141   140 1
  149   142   140 1
  150   143   142 1
  151   144   138 1
  152   144   143 1
  153   145   144 1
  154   146   145 1
  155   147   146 1
  156   148   147 1
  157   149   148 1
  158   150   149 1
  159   151   150 1
  160   152   151 1
  161   153   152 1
  162   154   138 1
  163   155   138 1
  164   156   143 1
  165   157   147 1
  166   158   151 1
  167   160   159 1
  168   161   160 1
  169   162   161 1
  170   163   161 1
  171   164   163 1
  172   165   159 1
  173   165   164 1
  174   166   165 1
  175   167   166 1
  176   168   167 1
  177   169   168 1
  178   170   169 1
  179   171   170 1
  180   172   171 1
  181   173   172 1
  182   174   153 1
  183   174   173 1
  184   175   159 1
  185   176   159 1
  186   177   164 1
  187   178   168 1
  188   179   172 1
  189   180   179 1
  190   181   179 1
  191   182   179 1
  192   183   178 1
  193   184   178 1
  194   185   178 1
  195   186   177 1
  196   187   177 1
  197   188   177 1
  198   189   176 1
  199   190   176 1
  200   191   176 1
  201   192   175 1
  202   193   175 1
  203   194   175 1
  204   195   160 1
  205   196   160 1
  206   197   158 1
  207   198   158 1
  208   199   158 1
  209   200   157 1
  210   201   157 1
  211   202   157 1
  212   203   156 1
  213   204   156 1
  214   205   156 1
  215   206   155 1
  216   207   155 1
  217   208   155 1
  218   209   154 1
  219   210   154 1
  220   211   154 1
  221   212   141 1
  222   213   146 1
  223   214   145 1
  224   215   142 1
  225   216   142 1
  226   217   174 1
  227   218   173 1
  228   219   171 1
  229   220   170 1
  230   221   169 1
  231   222   140 1
  232   223   167 1
  233   224   166 1
  234   225   165 1
  235   226   163 1
  236   227   161 1
  237   228   139 1
  238   229   139 1
  239   230   153 1
  240   231   152 1
  241   232   150 1
  242   233   149 1
  243   234   148 1
  244   235   162 1
  245   65    153 1
  246   65    174 1
@<TRIPOS>SUBSTRUCTURE
      1 CLA               1 ****               0 ****  **** 
      2 LUT             138 ****               0 ****  **** 
