@<TRIPOS>MOLECULE
Cpptraj generated mol2 file.
  235   246     2     0     0
SMALL
USER_CHARGES


@<TRIPOS>ATOM
      1 CAA        78.2080   57.0196   34.2457 a2         1 CLA     -0.055900
      2 CAB        78.5976   61.1593   42.9922 c8         1 CLA     -0.148500
      3 CAC        71.3852   57.7491   42.9657 a2         1 CLA     -0.012600
      4 CAD        73.8183   55.2216   35.5894 ck         1 CLA      0.398800
      5 NA         77.3168   57.7946   37.6119 ns         1 CLA     -0.225500
      6 CBA        79.3412   56.5802   33.2834 a2         1 CLA     -0.135000
      7 CBB        79.8538   61.1343   43.5344 c0         1 CLA     -0.395200
      8 CBC        70.8651   56.2706   42.9591 a3         1 CLA     -0.037700
      9 CBD        75.3539   55.4615   35.2637 a1         1 CLA     -0.053900
     10 NB         77.3485   59.4121   40.0597 nm         1 CLA     -0.295700
     11 OBD        73.1777   54.5077   34.8335 o2         1 CLA     -0.494600
     12 CGA        79.5377   55.0920   33.1537 c4         1 CLA      0.827000
     13 CGD        75.9402   54.1384   35.2477 c4         1 CLA      0.655300
     14 ND         74.5292   57.0331   38.3843 nm         1 CLA     -0.291600
     15 CED        75.9089   51.9123   36.1678 a3         1 CLA      0.005400
     16 CHA        75.7581   56.4069   36.3488 cs         1 CLA     -0.123800
     17 CHB        79.1026   59.3597   38.3006 aa         1 CLA     -0.291900
     18 CHC        76.1830   59.7505   42.1602 aa         1 CLA     -0.090400
     19 CHD        72.6662   57.1461   40.0281 aa         1 CLA     -0.052000
     20 CMA        80.6996   56.9063   36.9928 a3         1 CLA     -0.230700
     21 CMB        80.7523   61.1402   40.3599 a3         1 CLA     -0.180800
     22 CMC        73.8411   59.2399   44.4496 a3         1 CLA     -0.134000
     23 CMD        71.0716   55.7243   37.8386 a3         1 CLA     -0.141100
     24 C1         80.5223   53.1797   34.3219 a2         1 CLA      0.023000
     25 C1A        77.0542   57.0432   36.4876 ac         1 CLA     -0.015100
     26 C1B        78.5763   59.8453   39.5152 cr         1 CLA      0.054700
     27 C1C        75.0078   58.9547   42.0866 cn         1 CLA     -0.005600
     28 C1D        73.1937   56.7412   38.8059 ap         1 CLA     -0.047300
     29 O1A        79.1115   54.4333   32.2324 o2         1 CLA     -0.610800
     30 O1D        76.6505   53.6925   34.3463 o2         1 CLA     -0.558200
     31 C2         80.7483   52.9370   35.8209 c8         1 CLA     -0.325100
     32 C2A        78.3210   56.7403   35.6967 a1         1 CLA      0.098600
     33 C2B        79.2731   60.6769   40.4914 cb         1 CLA      0.088500
     34 C2C        73.9002   58.6786   43.0843 cb         1 CLA      0.053700
     35 C2D        72.5150   56.0381   37.8011 cb         1 CLA      0.058900
     36 O2A        80.3489   54.6239   34.1882 o1         1 CLA     -0.437200
     37 O2D        75.6052   53.3325   36.3491 o1         1 CLA     -0.357600
     38 C3         81.3797   51.7783   36.1967 c5         1 CLA      0.031200
     39 C3A        79.4118   57.6016   36.4288 a1         1 CLA      0.166800
     40 C3B        78.4436   60.6877   41.6500 cb         1 CLA      0.035000
     41 C3C        72.8070   58.0344   42.4239 cb         1 CLA     -0.089900
     42 C3D        73.5071   55.8286   36.8463 cb         1 CLA     -0.035900
     43 C4         80.8219   50.3807   36.5864 a3         1 CLA     -0.053300
     44 C4A        78.5643   58.3398   37.5157 ac         1 CLA      0.001800
     45 C4B        77.2313   60.0037   41.3020 cn         1 CLA     -0.020900
     46 C4C        73.3603   57.8608   41.0736 cr         1 CLA     -0.044400
     47 C4D        74.6645   56.4472   37.2052 c6         1 CLA     -0.046000
     48 C5         82.8876   51.7418   35.9700 a2         1 CLA     -0.070400
     49 C6         83.7341   52.9885   36.4722 a2         1 CLA      0.043900
     50 C7         83.5078   53.1371   37.9479 a2         1 CLA     -0.150000
     51 C8         84.4440   54.2304   38.6048 a1         1 CLA      0.064200
     52 C9         85.9789   54.0188   38.4191 a3         1 CLA     -0.259300
     53 C10        84.1235   54.4751   40.1019 a2         1 CLA     -0.071900
     54 C11        82.7174   55.0408   40.4269 a2         1 CLA      0.014500
     55 C12        82.6956   55.8584   41.7123 a2         1 CLA     -0.112100
     56 C13        81.2883   56.2699   42.2259 a1         1 CLA      0.089200
     57 C14        80.6681   57.2447   41.2220 a3         1 CLA     -0.239100
     58 C15        81.2722   56.6401   43.6818 a2         1 CLA     -0.102200
     59 C16        82.1730   57.8275   44.0570 a2         1 CLA      0.023900
     60 C17        81.7439   58.5892   45.3900 a2         1 CLA     -0.105700
     61 C18        82.8250   59.6985   45.7791 a1         1 CLA      0.206800
     62 C19        82.2884   60.6446   46.7429 a3         1 CLA     -0.280100
     63 C20        84.1440   59.0656   46.3421 a3         1 CLA     -0.280100
     64 NC         74.6871   58.3174   40.9377 nx         1 CLA     -0.309200
     65 MG         75.9381   58.2510   39.2033 mg         1 CLA      0.895000
     66 HMD3       70.7446   55.1546   37.0039 dc         1 CLA      0.064300
     67 HMD2       70.9283   55.1372   38.7256 dc         1 CLA      0.064300
     68 HMD1       70.4106   56.5725   37.8750 dc         1 CLA      0.064300
     69 HMC3       73.5314   58.4435   45.1012 dc         1 CLA      0.052100
     70 HMC2       74.8106   59.4740   44.9238 dc         1 CLA      0.052100
     71 HMC1       73.1336   60.0953   44.4066 dc         1 CLA      0.052100
     72 HMB3       80.9345   61.8347   41.2123 dc         1 CLA      0.063600
     73 HMB2       81.4178   60.2745   40.3093 dc         1 CLA      0.063600
     74 HMB1       80.6565   61.7072   39.4081 dc         1 CLA      0.063600
     75 HMA3       81.4037   57.6662   37.4494 dc         1 CLA      0.058300
     76 HMA2       80.3809   56.1937   37.7749 dc         1 CLA      0.058300
     77 HMA1       81.2919   56.3420   36.2715 dc         1 CLA      0.058300
     78 HED3       76.9782   51.8384   36.2131 dc         1 CLA      0.079300
     79 HED2       75.4245   51.2194   36.7940 dc         1 CLA      0.079300
     80 HED1       75.5840   51.5895   35.1804 dc         1 CLA      0.079300
     81 HBC3       70.8092   55.9720   41.8843 dc         1 CLA      0.016300
     82 HBC2       71.5725   55.6098   43.4683 dc         1 CLA      0.016300
     83 HBC1       69.8750   56.1791   43.4444 dc         1 CLA      0.016300
     84 HBB2       80.1170   61.6371   44.4803 da         1 CLA      0.183000
     85 HBB1       80.6495   60.5269   43.0442 da         1 CLA      0.183000
     86 HBA2       79.2068   56.9093   32.2616 dc         1 CLA      0.029400
     87 HBA1       80.1861   57.0809   33.6527 dc         1 CLA      0.029400
     88 HAC2       71.2964   58.2433   43.8965 dc         1 CLA      0.029300
     89 HAC1       70.6893   58.2294   42.2734 dc         1 CLA      0.029300
     90 HAA2       77.3003   56.5273   33.8941 dc         1 CLA      0.028700
     91 HAA1       78.0634   58.1267   34.1445 dc         1 CLA      0.028700
     92 H203       84.5568   58.4275   45.5872 dc         1 CLA      0.065600
     93 H202       84.8335   59.8701   46.4992 dc         1 CLA      0.065600
     94 H201       83.9419   58.4305   47.2369 dc         1 CLA      0.065600
     95 H193       81.9695   60.2890   47.7006 dc         1 CLA      0.065600
     96 H192       82.9964   61.4637   46.9287 dc         1 CLA      0.065600
     97 H191       81.3512   61.0627   46.3800 dc         1 CLA      0.065600
     98 H172       80.7696   59.0451   45.3063 dc         1 CLA      0.027600
     99 H171       81.7109   57.9302   46.2307 dc         1 CLA      0.027600
    100 H162       83.1832   57.4065   44.1254 dc         1 CLA      0.002900
    101 H161       82.1100   58.5733   43.2029 dc         1 CLA      0.002900
    102 H152       80.2478   56.9649   43.9115 dc         1 CLA      0.029100
    103 H151       81.4746   55.9040   44.4024 dc         1 CLA      0.029100
    104 H143       81.4825   57.9154   40.9586 dc         1 CLA      0.063600
    105 H142       80.2717   56.7794   40.3396 dc         1 CLA      0.063600
    106 H141       79.9596   57.9789   41.7109 dc         1 CLA      0.063600
    107 H122       83.1407   55.3142   42.5210 dc         1 CLA      0.032500
    108 H121       83.3168   56.7329   41.6005 dc         1 CLA      0.032500
    109 H112       82.4776   55.6776   39.5719 dc         1 CLA      0.006600
    110 H111       82.0251   54.1461   40.4286 dc         1 CLA      0.006600
    111 H102       84.3482   53.5624   40.6660 dc         1 CLA      0.024100
    112 H101       84.8526   55.2422   40.4434 dc         1 CLA      0.024100
    113 HHD        71.6655   56.8189   40.2230 da         1 CLA      0.174300
    114 HHC        76.2790   60.0815   43.1751 da         1 CLA      0.136800
    115 HHB        80.1317   59.5816   38.0820 da         1 CLA      0.138300
    116 HBD        75.4065   55.8125   34.2386 dc         1 CLA      0.107700
    117 HAB        77.7311   61.7059   43.4693 da         1 CLA      0.155200
    118 H93        86.2890   53.0411   38.8138 dc         1 CLA      0.069500
    119 H92        86.2737   54.0356   37.3307 dc         1 CLA      0.069500
    120 H91        86.4902   54.8565   38.9064 dc         1 CLA      0.069500
    121 H8         84.1949   55.0907   38.0268 dc         1 CLA      0.029300
    122 H72        82.5246   53.3702   38.1854 dc         1 CLA      0.044400
    123 H71        83.7282   52.2199   38.3635 dc         1 CLA      0.044400
    124 H62        84.6914   52.8011   36.2748 dc         1 CLA      0.015600
    125 H61        83.3451   53.9212   35.9753 dc         1 CLA      0.015600
    126 H52        83.2208   50.7596   36.3646 dc         1 CLA      0.033200
    127 H51        83.1003   51.7207   34.9368 dc         1 CLA      0.033200
    128 H43        81.3518   50.1079   37.5305 dc         1 CLA      0.037000
    129 H42        79.7524   50.3765   36.8048 dc         1 CLA      0.037000
    130 H41        81.0323   49.6280   35.8285 dc         1 CLA      0.037000
    131 H3A        79.6683   58.4017   35.7795 dc         1 CLA      0.041100
    132 H2A        78.5409   55.7050   35.9195 dc         1 CLA      0.083100
    133 H2         80.6301   53.7408   36.5134 da         1 CLA      0.180900
    134 H18        83.1202   60.2010   44.8826 dc         1 CLA     -0.003900
    135 H13        80.6180   55.4523   42.2534 dc         1 CLA      0.019700
    136 H12        79.6677   52.6599   33.9579 dc         1 CLA      0.120400
    137 H11        81.4362   52.8157   33.7539 dc         1 CLA      0.120400
    138 C1         67.9594   60.7791   49.1193 Z1         2 LUT      0.509236
    139 C2         66.7666   60.5017   49.9956 Z2         2 LUT     -0.434695
    140 C3         65.9017   61.6889   50.4489 Z3         2 LUT      0.437453
    141 O3         66.1946   62.1030   51.7228 S1         2 LUT     -0.547129
    142 C4         65.9631   62.8630   49.4960 Z4         2 LUT     -0.468603
    143 C5         66.6076   62.7374   48.2045 Z5         2 LUT      0.279246
    144 C6         67.5360   61.7697   47.9834 Z6         2 LUT     -0.305473
    145 C7         67.9520   61.4514   46.6363 Z7         2 LUT      0.069402
    146 C8         69.1543   61.7011   46.0035 Z8         2 LUT     -0.191631
    147 C9         69.6517   61.3541   44.6521 Z9         2 LUT      0.196698
    148 C10        70.8022   61.9536   44.1465 Y1         2 LUT     -0.208611
    149 C11        71.5007   61.6886   42.9601 Y2         2 LUT      0.030784
    150 C12        72.6442   62.3548   42.6389 Y3         2 LUT     -0.220316
    151 C13        73.4422   62.2081   41.4196 Y4         2 LUT      0.215937
    152 C14        74.6582   62.8748   41.4185 Y5         2 LUT     -0.185793
    153 C15        75.7442   62.9465   40.4906 Y6         2 LUT     -0.057835
    154 C16        68.7297   59.4656   48.6143 Y7         2 LUT     -0.405615
    155 C17        68.9179   61.4256   50.1190 Y7         2 LUT     -0.405615
    156 C18        66.1484   63.6708   47.0724 Y9         2 LUT     -0.369639
    157 C19        68.9038   60.2320   43.9257 W1         2 LUT     -0.333362
    158 C20        72.9594   61.4897   40.2360 W2         2 LUT     -0.323439
    159 C21        87.3287   63.9786   35.3238 Z1         2 LUT      0.406104
    160 C22        88.2591   63.4703   34.2885 Z2         2 LUT     -0.404965
    161 C23        88.8612   64.5689   33.3232 Z3         2 LUT      0.391255
    162 O23        89.5794   63.8869   32.2130 S1         2 LUT     -0.528210
    163 C24        87.7756   65.5601   32.8444 W6         2 LUT     -0.258361
    164 C25        86.5203   65.6259   33.2664 Z5         2 LUT      0.133546
    165 C26        86.1557   64.7722   34.5537 W8         2 LUT     -0.147008
    166 C27        85.2789   65.4654   35.6450 Z7         2 LUT      0.023843
    167 C28        84.2844   64.7706   36.2608 Z8         2 LUT     -0.216987
    168 C29        83.4034   65.3976   37.2804 Z9         2 LUT      0.206524
    169 C30        82.2955   64.6896   37.7244 Y1         2 LUT     -0.215556
    170 C31        81.3562   64.9956   38.7765 Y2         2 LUT      0.025142
    171 C32        80.1694   64.3510   38.8280 Y3         2 LUT     -0.212209
    172 C33        79.1677   64.6090   39.9185 Y4         2 LUT      0.240937
    173 C34        78.0382   63.8106   39.9782 Y5         2 LUT     -0.218862
    174 C35        76.8320   63.7985   40.7738 Y6         2 LUT     -0.023547
    175 C36        88.1830   64.8464   36.3247 Y7         2 LUT     -0.393485
    176 C37        86.8813   62.6327   36.1225 Y7         2 LUT     -0.393485
    177 C38        85.4232   66.5043   32.7054 Y9         2 LUT     -0.387526
    178 C39        83.6312   66.8091   37.8392 W1         2 LUT     -0.322618
    179 C40        79.4980   65.6856   40.9400 W2         2 LUT     -0.358472
    180 H403       80.2616   65.3636   41.6180 R7         2 LUT      0.097720
    181 H402       79.8172   66.6483   40.6762 R7         2 LUT      0.097720
    182 H401       78.6821   65.9309   41.5920 R7         2 LUT      0.097720
    183 H393       84.3600   66.7477   38.6326 R4         2 LUT      0.082505
    184 H392       83.9682   67.6186   37.1510 R4         2 LUT      0.082505
    185 H391       82.7350   67.1838   38.3536 R4         2 LUT      0.082505
    186 H383       85.3431   66.4526   31.6796 R1         2 LUT      0.104030
    187 H382       84.4509   66.3961   33.1985 R1         2 LUT      0.104030
    188 H381       85.8068   67.5419   32.8622 R1         2 LUT      0.104030
    189 H373       86.5440   61.7910   35.4484 T4         2 LUT      0.089537
    190 H372       87.6514   62.1665   36.6961 T4         2 LUT      0.089537
    191 H371       85.9863   62.6794   36.7735 T4         2 LUT      0.089537
    192 H363       89.1529   64.4200   36.6391 T4         2 LUT      0.089537
    193 H362       88.4343   65.8497   35.9357 T4         2 LUT      0.089537
    194 H361       87.6103   65.0347   37.1896 T4         2 LUT      0.089537
    195 H222       89.0615   62.8802   34.8509 U2         2 LUT      0.127376
    196 H221       87.7541   62.7179   33.7577 U2         2 LUT      0.127376
    197 H203       73.7139   61.4301   39.3856 R7         2 LUT      0.087068
    198 H202       72.7471   60.4517   40.3916 R7         2 LUT      0.087068
    199 H201       72.0393   61.9559   39.8113 R7         2 LUT      0.087068
    200 H193       69.1839   59.2521   44.1985 R4         2 LUT      0.089716
    201 H192       67.8070   60.2384   44.0904 R4         2 LUT      0.089716
    202 H191       68.8835   60.3282   42.8011 R4         2 LUT      0.089716
    203 H183       66.0323   63.0603   46.1689 R1         2 LUT      0.094572
    204 H182       65.3100   64.2850   47.3662 R1         2 LUT      0.094572
    205 H181       67.0204   64.2501   46.7785 R1         2 LUT      0.094572
    206 H173       69.7238   61.8248   49.5079 T4         2 LUT      0.093752
    207 H172       68.4462   62.2155   50.6586 T4         2 LUT      0.093752
    208 H171       69.3372   60.6496   50.8277 T4         2 LUT      0.093752
    209 H163       69.1099   58.8757   49.3956 T4         2 LUT      0.093752
    210 H162       68.1267   58.6839   48.0270 T4         2 LUT      0.093752
    211 H161       69.6442   59.6411   47.9620 T4         2 LUT      0.093752
    212 HO3        65.7358   61.5462   52.3578 Q1         2 LUT      0.300121
    213 H8         69.9221   62.2052   46.6284 U7         2 LUT      0.080784
    214 H7         67.1892   60.9881   46.0706 U6         2 LUT      0.042190
    215 H42        64.9170   63.0788   49.2866 U5         2 LUT      0.145166
    216 H41        66.4296   63.6629   49.9927 U5         2 LUT      0.145166
    217 H35        76.7659   64.4549   41.6454 T3         2 LUT      0.077919
    218 H34        78.0348   63.1287   39.1404 T2         2 LUT      0.073626
    219 H32        79.8879   63.7133   38.0435 T1         2 LUT      0.092510
    220 H31        81.6691   65.7202   39.5275 U9         2 LUT      0.070048
    221 H30        82.0717   63.7459   37.0961 U8         2 LUT      0.085442
    222 H3         64.8820   61.2021   50.3286 U3         2 LUT     -0.031596
    223 H28        84.0745   63.7082   36.0524 U7         2 LUT      0.084728
    224 H27        85.4364   66.5489   35.8518 U6         2 LUT      0.087291
    225 H26        85.6144   64.0832   33.9769 Q6         2 LUT      0.075325
    226 H24        88.0456   66.1183   31.9729 Q5         2 LUT      0.094482
    227 H23        89.6108   65.2408   33.8242 U3         2 LUT     -0.024869
    228 H22        66.1022   59.8846   49.4302 U2         2 LUT      0.127376
    229 H21        67.0549   59.9479   50.8574 U2         2 LUT      0.127376
    230 H15        75.7696   62.2279   39.7088 T3         2 LUT      0.093200
    231 H14        75.0058   63.2339   42.4129 T2         2 LUT      0.068865
    232 H12        73.0550   63.0991   43.3991 T1         2 LUT      0.095507
    233 H11        71.1289   60.9564   42.3610 U9         2 LUT      0.068930
    234 H10        71.2379   62.7409   44.8075 U8         2 LUT      0.083911
    235 H1         89.0275   63.7430   31.4248 Q1         2 LUT      0.297311
@<TRIPOS>BOND
    1     6     1 1
    2     7     2 1
    3     8     3 1
    4     9     4 1
    5    11     4 1
    6    12     6 1
    7    13     9 1
    8    16     9 1
    9    25     5 1
   10    25    16 1
   11    26    10 1
   12    26    17 1
   13    27    18 1
   14    28    14 1
   15    28    19 1
   16    29    12 1
   17    30    13 1
   18    31    24 1
   19    32     1 1
   20    32    25 1
   21    33    21 1
   22    33    26 1
   23    34    22 1
   24    34    27 1
   25    35    23 1
   26    35    28 1
   27    36    12 1
   28    36    24 1
   29    37    13 1
   30    37    15 1
   31    38    31 1
   32    39    20 1
   33    39    32 1
   34    40     2 1
   35    40    33 1
   36    41     3 1
   37    41    34 1
   38    42     4 1
   39    42    35 1
   40    43    38 1
   41    44     5 1
   42    44    17 1
   43    44    39 1
   44    45    10 1
   45    45    18 1
   46    45    40 1
   47    46    19 1
   48    46    41 1
   49    47    14 1
   50    47    16 1
   51    47    42 1
   52    48    38 1
   53    49    48 1
   54    50    49 1
   55    51    50 1
   56    52    51 1
   57    53    51 1
   58    54    53 1
   59    55    54 1
   60    56    55 1
   61    57    56 1
   62    58    56 1
   63    59    58 1
   64    60    59 1
   65    61    60 1
   66    62    61 1
   67    63    61 1
   68    64    27 1
   69    64    46 1
   70    65     5 1
   71    65    10 1
   72    65    64 1
   73    65    14 1
   74    66    23 1
   75    67    23 1
   76    68    23 1
   77    69    22 1
   78    70    22 1
   79    71    22 1
   80    72    21 1
   81    73    21 1
   82    74    21 1
   83    75    20 1
   84    76    20 1
   85    77    20 1
   86    78    15 1
   87    79    15 1
   88    80    15 1
   89    81     8 1
   90    82     8 1
   91    83     8 1
   92    84     7 1
   93    85     7 1
   94    86     6 1
   95    87     6 1
   96    88     3 1
   97    89     3 1
   98    90     1 1
   99    91     1 1
  100    92    63 1
  101    93    63 1
  102    94    63 1
  103    95    62 1
  104    96    62 1
  105    97    62 1
  106    98    60 1
  107    99    60 1
  108   100    59 1
  109   101    59 1
  110   102    58 1
  111   103    58 1
  112   104    57 1
  113   105    57 1
  114   106    57 1
  115   107    55 1
  116   108    55 1
  117   109    54 1
  118   110    54 1
  119   111    53 1
  120   112    53 1
  121   113    19 1
  122   114    18 1
  123   115    17 1
  124   116     9 1
  125   117     2 1
  126   118    52 1
  127   119    52 1
  128   120    52 1
  129   121    51 1
  130   122    50 1
  131   123    50 1
  132   124    49 1
  133   125    49 1
  134   126    48 1
  135   127    48 1
  136   128    43 1
  137   129    43 1
  138   130    43 1
  139   131    39 1
  140   132    32 1
  141   133    31 1
  142   134    61 1
  143   135    56 1
  144   136    24 1
  145   137    24 1
  146   139   138 1
  147   140   139 1
  148   141   140 1
  149   142   140 1
  150   143   142 1
  151   144   138 1
  152   144   143 1
  153   145   144 1
  154   146   145 1
  155   147   146 1
  156   148   147 1
  157   149   148 1
  158   150   149 1
  159   151   150 1
  160   152   151 1
  161   153   152 1
  162   154   138 1
  163   155   138 1
  164   156   143 1
  165   157   147 1
  166   158   151 1
  167   160   159 1
  168   161   160 1
  169   162   161 1
  170   163   161 1
  171   164   163 1
  172   165   159 1
  173   165   164 1
  174   166   165 1
  175   167   166 1
  176   168   167 1
  177   169   168 1
  178   170   169 1
  179   171   170 1
  180   172   171 1
  181   173   172 1
  182   174   153 1
  183   174   173 1
  184   175   159 1
  185   176   159 1
  186   177   164 1
  187   178   168 1
  188   179   172 1
  189   180   179 1
  190   181   179 1
  191   182   179 1
  192   183   178 1
  193   184   178 1
  194   185   178 1
  195   186   177 1
  196   187   177 1
  197   188   177 1
  198   189   176 1
  199   190   176 1
  200   191   176 1
  201   192   175 1
  202   193   175 1
  203   194   175 1
  204   195   160 1
  205   196   160 1
  206   197   158 1
  207   198   158 1
  208   199   158 1
  209   200   157 1
  210   201   157 1
  211   202   157 1
  212   203   156 1
  213   204   156 1
  214   205   156 1
  215   206   155 1
  216   207   155 1
  217   208   155 1
  218   209   154 1
  219   210   154 1
  220   211   154 1
  221   212   141 1
  222   213   146 1
  223   214   145 1
  224   215   142 1
  225   216   142 1
  226   217   174 1
  227   218   173 1
  228   219   171 1
  229   220   170 1
  230   221   169 1
  231   222   140 1
  232   223   167 1
  233   224   166 1
  234   225   165 1
  235   226   163 1
  236   227   161 1
  237   228   139 1
  238   229   139 1
  239   230   153 1
  240   231   152 1
  241   232   150 1
  242   233   149 1
  243   234   148 1
  244   235   162 1
  245   65    153 1
  246   65    174 1
@<TRIPOS>SUBSTRUCTURE
      1 CLA               1 ****               0 ****  **** 
      2 LUT             138 ****               0 ****  **** 
