@<TRIPOS>MOLECULE
Cpptraj generated mol2 file.
  235   246     2     0     0
SMALL
USER_CHARGES


@<TRIPOS>ATOM
      1 CAA        77.7854   58.0456   34.6914 a2         1 CLA     -0.055900
      2 CAB        78.6490   62.2886   43.4171 c8         1 CLA     -0.148500
      3 CAC        71.2170   58.6484   43.3714 a2         1 CLA     -0.012600
      4 CAD        73.7215   55.5289   36.2714 ck         1 CLA      0.398800
      5 NA         77.0979   58.6192   38.1106 ns         1 CLA     -0.225500
      6 CBA        78.9122   57.9607   33.6288 a2         1 CLA     -0.135000
      7 CBB        78.8104   61.5953   44.6211 c0         1 CLA     -0.395200
      8 CBC        71.0551   57.1552   43.6286 a3         1 CLA     -0.037700
      9 CBD        75.2469   55.9182   35.9405 a1         1 CLA     -0.053900
     10 NB         77.1291   60.3083   40.5536 nm         1 CLA     -0.295700
     11 OBD        72.9369   54.8003   35.6478 o2         1 CLA     -0.494600
     12 CGA        79.4529   56.5107   33.4258 c4         1 CLA      0.827000
     13 CGD        76.0841   54.6214   36.0214 c4         1 CLA      0.655300
     14 ND         74.3383   57.7754   38.9122 nm         1 CLA     -0.291600
     15 CED        76.5674   52.7123   37.4612 a3         1 CLA      0.005400
     16 CHA        75.6673   57.0266   36.9777 cs         1 CLA     -0.123800
     17 CHB        78.7778   60.2762   38.8076 aa         1 CLA     -0.291900
     18 CHC        75.9804   60.4596   42.8049 aa         1 CLA     -0.090400
     19 CHD        72.5077   58.0468   40.5339 aa         1 CLA     -0.052000
     20 CMA        80.4193   58.1783   37.3035 a3         1 CLA     -0.230700
     21 CMB        80.2705   62.3268   40.6713 a3         1 CLA     -0.180800
     22 CMC        73.6508   60.1841   44.9558 a3         1 CLA     -0.134000
     23 CMD        71.0854   56.0739   38.4594 a3         1 CLA     -0.141100
     24 C1         80.5563   54.5775   34.3787 a2         1 CLA      0.023000
     25 C1A        76.9021   57.7772   37.0888 ac         1 CLA     -0.015100
     26 C1B        78.2847   60.8027   40.0656 cr         1 CLA      0.054700
     27 C1C        74.7965   59.7831   42.5555 cn         1 CLA     -0.005600
     28 C1D        73.0607   57.4799   39.2943 ap         1 CLA     -0.047300
     29 O1A        79.1379   55.8239   32.4426 o2         1 CLA     -0.610800
     30 O1D        76.9973   54.3364   35.2525 o2         1 CLA     -0.558200
     31 C2         80.9509   54.1416   35.7605 c8         1 CLA     -0.325100
     32 C2A        78.1278   57.7317   36.1835 a1         1 CLA      0.098600
     33 C2B        78.9295   61.6830   40.9689 cb         1 CLA      0.088500
     34 C2C        73.7076   59.6745   43.5309 cb         1 CLA      0.053700
     35 C2D        72.4292   56.5919   38.3566 cb         1 CLA      0.058900
     36 O2A        80.2525   56.0077   34.4362 o1         1 CLA     -0.437200
     37 O2D        75.7412   53.8755   37.1051 o1         1 CLA     -0.357600
     38 C3         82.2069   54.2959   36.2600 c5         1 CLA      0.031200
     39 C3A        79.0375   58.7820   36.8400 a1         1 CLA      0.166800
     40 C3B        78.2248   61.5907   42.1989 cb         1 CLA      0.035000
     41 C3C        72.6261   59.0110   42.8137 cb         1 CLA     -0.089900
     42 C3D        73.4345   56.2775   37.4501 cb         1 CLA     -0.035900
     43 C4         83.3455   53.4312   35.6437 a3         1 CLA     -0.053300
     44 C4A        78.2520   59.2552   38.0154 ac         1 CLA      0.001800
     45 C4B        77.0200   60.7674   41.8905 cn         1 CLA     -0.020900
     46 C4C        73.1570   58.7160   41.5166 cr         1 CLA     -0.044400
     47 C4D        74.5778   57.0718   37.7980 c6         1 CLA     -0.046000
     48 C5         82.5769   55.2770   37.3804 a2         1 CLA     -0.070400
     49 C6         83.8065   55.0113   38.3593 a2         1 CLA      0.043900
     50 C7         83.9701   56.0751   39.4411 a2         1 CLA     -0.150000
     51 C8         84.2796   57.5615   39.0727 a1         1 CLA      0.064200
     52 C9         85.6449   57.8354   38.3267 a3         1 CLA     -0.259300
     53 C10        84.2024   58.4491   40.3766 a2         1 CLA     -0.071900
     54 C11        82.7939   58.5937   41.0607 a2         1 CLA      0.014500
     55 C12        82.6780   59.6844   42.0709 a2         1 CLA     -0.112100
     56 C13        83.6070   59.5564   43.3555 a1         1 CLA      0.089200
     57 C14        83.2626   58.2601   44.1934 a3         1 CLA     -0.239100
     58 C15        83.5974   60.7496   44.2411 a2         1 CLA     -0.102200
     59 C16        82.2147   61.3393   44.7608 a2         1 CLA      0.023900
     60 C17        82.5413   62.7311   45.3837 a2         1 CLA     -0.105700
     61 C18        83.2346   62.7285   46.7945 a1         1 CLA      0.206800
     62 C19        83.6363   64.1008   47.2548 a3         1 CLA     -0.280100
     63 C20        82.4597   61.9291   47.7955 a3         1 CLA     -0.280100
     64 NC         74.4587   59.1930   41.3655 nx         1 CLA     -0.309200
     65 MG         75.7296   59.1682   39.6988 mg         1 CLA      0.895000
     66 HMD3       70.4109   56.9484   38.6169 dc         1 CLA      0.064300
     67 HMD2       70.8127   55.4726   37.5971 dc         1 CLA      0.064300
     68 HMD1       70.9626   55.5567   39.4067 dc         1 CLA      0.064300
     69 HMC3       73.0795   59.4779   45.5468 dc         1 CLA      0.052100
     70 HMC2       74.6808   60.3414   45.3503 dc         1 CLA      0.052100
     71 HMC1       73.1967   61.1981   44.9915 dc         1 CLA      0.052100
     72 HMB3       81.1326   61.6291   40.6201 dc         1 CLA      0.063600
     73 HMB2       80.2690   62.8677   39.7063 dc         1 CLA      0.063600
     74 HMB1       80.4777   63.0103   41.4860 dc         1 CLA      0.063600
     75 HMA3       80.8502   57.5911   36.4731 dc         1 CLA      0.058300
     76 HMA2       80.9895   59.1358   37.4817 dc         1 CLA      0.058300
     77 HMA1       80.3549   57.6770   38.2495 dc         1 CLA      0.058300
     78 HED3       76.6201   52.0771   36.6074 dc         1 CLA      0.079300
     79 HED2       77.5339   53.0231   37.6724 dc         1 CLA      0.079300
     80 HED1       75.9917   52.0965   38.1856 dc         1 CLA      0.079300
     81 HBC3       71.6640   57.0037   44.5833 dc         1 CLA      0.016300
     82 HBC2       70.0629   56.8460   43.9543 dc         1 CLA      0.016300
     83 HBC1       71.4692   56.6241   42.7589 dc         1 CLA      0.016300
     84 HBB2       79.1380   62.1225   45.5784 da         1 CLA      0.183000
     85 HBB1       78.6182   60.5367   44.7200 da         1 CLA      0.183000
     86 HBA2       78.3913   58.3387   32.7779 dc         1 CLA      0.029400
     87 HBA1       79.7750   58.6097   33.7287 dc         1 CLA      0.029400
     88 HAC2       70.9643   59.2878   44.2211 dc         1 CLA      0.029300
     89 HAC1       70.5593   58.8640   42.5670 dc         1 CLA      0.029300
     90 HAA2       77.0449   57.3223   34.1852 dc         1 CLA      0.028700
     91 HAA1       77.4098   59.0893   34.6125 dc         1 CLA      0.028700
     92 H203       82.8410   60.9155   47.8068 dc         1 CLA      0.065600
     93 H202       82.5667   62.3918   48.8206 dc         1 CLA      0.065600
     94 H201       81.4316   61.8155   47.5852 dc         1 CLA      0.065600
     95 H193       84.2642   64.6451   46.5465 dc         1 CLA      0.065600
     96 H192       82.8414   64.7191   47.4911 dc         1 CLA      0.065600
     97 H191       84.1167   63.9547   48.2342 dc         1 CLA      0.065600
     98 H172       83.0712   63.3280   44.5738 dc         1 CLA      0.027600
     99 H171       81.5908   63.1523   45.5679 dc         1 CLA      0.027600
    100 H162       81.4403   61.4394   43.9661 dc         1 CLA      0.002900
    101 H161       81.8182   60.6516   45.5463 dc         1 CLA      0.002900
    102 H152       84.1679   60.4758   45.1969 dc         1 CLA      0.029100
    103 H151       84.1316   61.5590   43.8153 dc         1 CLA      0.029100
    104 H143       82.3393   58.1451   44.6086 dc         1 CLA      0.063600
    105 H142       83.4679   57.3946   43.6180 dc         1 CLA      0.063600
    106 H141       83.8922   58.1702   45.1101 dc         1 CLA      0.063600
    107 H122       82.9725   60.6244   41.5635 dc         1 CLA      0.032500
    108 H121       81.6162   59.8358   42.3487 dc         1 CLA      0.032500
    109 H112       82.0701   58.7972   40.2758 dc         1 CLA      0.006600
    110 H111       82.4793   57.7223   41.4244 dc         1 CLA      0.006600
    111 H102       84.9016   57.9934   41.1605 dc         1 CLA      0.024100
    112 H101       84.4586   59.4286   40.0921 dc         1 CLA      0.024100
    113 HHD        71.4844   57.8408   40.7979 da         1 CLA      0.174300
    114 HHC        76.2699   60.8291   43.8079 da         1 CLA      0.136800
    115 HHB        79.6865   60.6885   38.3698 da         1 CLA      0.138300
    116 HBD        75.2091   56.4317   34.9906 dc         1 CLA      0.107700
    117 HAB        78.9996   63.3607   43.3740 da         1 CLA      0.155200
    118 H93        86.4108   57.4833   38.9860 dc         1 CLA      0.069500
    119 H92        85.8381   57.2755   37.4059 dc         1 CLA      0.069500
    120 H91        85.7409   58.9737   38.2584 dc         1 CLA      0.069500
    121 H8         83.4692   57.9210   38.4974 dc         1 CLA      0.029300
    122 H72        83.0205   55.9842   39.9924 dc         1 CLA      0.044400
    123 H71        84.7858   55.7739   40.1257 dc         1 CLA      0.044400
    124 H62        83.5303   54.0754   38.8608 dc         1 CLA      0.015600
    125 H61        84.7204   54.7590   37.7902 dc         1 CLA      0.015600
    126 H52        82.7939   56.1397   36.7726 dc         1 CLA      0.033200
    127 H51        81.6673   55.5287   37.9768 dc         1 CLA      0.033200
    128 H43        83.6346   52.7559   36.4322 dc         1 CLA      0.037000
    129 H42        83.0829   52.7419   34.8502 dc         1 CLA      0.037000
    130 H41        84.1280   54.0721   35.3284 dc         1 CLA      0.037000
    131 H3A        79.3476   59.5800   36.2088 dc         1 CLA      0.041100
    132 H2A        78.6091   56.8208   36.2914 dc         1 CLA      0.083100
    133 H2         80.2176   53.3930   36.1216 da         1 CLA      0.180900
    134 H18        84.1660   62.2770   46.7372 dc         1 CLA     -0.003900
    135 H13        84.6229   59.4068   42.9858 dc         1 CLA      0.019700
    136 H12        79.5520   54.1652   34.2598 dc         1 CLA      0.120400
    137 H11        81.1994   54.2636   33.5247 dc         1 CLA      0.120400
    138 C1         67.1010   62.4425   50.5367 Z1         2 LUT      0.509236
    139 C2         67.1592   63.8177   51.3298 Z2         2 LUT     -0.434695
    140 C3         65.8773   64.6481   51.4650 Z3         2 LUT      0.437453
    141 O3         66.2220   66.0022   51.8574 S1         2 LUT     -0.547129
    142 C4         65.1892   64.6230   50.1039 Z4         2 LUT     -0.468603
    143 C5         65.8563   63.9375   49.0116 Z5         2 LUT      0.279246
    144 C6         66.5758   62.8182   49.1691 Z6         2 LUT     -0.305473
    145 C7         67.3480   62.1635   48.1318 Z7         2 LUT      0.069402
    146 C8         68.0893   62.7030   47.1727 Z8         2 LUT     -0.191631
    147 C9         68.7054   62.1754   45.9863 Z9         2 LUT      0.196698
    148 C10        69.6567   62.9132   45.3524 Y1         2 LUT     -0.208611
    149 C11        70.4349   62.6177   44.1695 Y2         2 LUT      0.030784
    150 C12        71.6474   63.2217   43.8239 Y3         2 LUT     -0.220316
    151 C13        72.5181   63.1706   42.6735 Y4         2 LUT      0.215937
    152 C14        73.7548   63.8276   42.6864 Y5         2 LUT     -0.185793
    153 C15        74.7966   63.7912   41.7516 Y6         2 LUT     -0.057835
    154 C16        66.0322   61.5810   51.2087 Y7         2 LUT     -0.405615
    155 C17        68.4450   61.8070   50.8077 Y7         2 LUT     -0.405615
    156 C18        65.4845   64.6677   47.6749 Y9         2 LUT     -0.369639
    157 C19        68.1946   60.8225   45.4175 W1         2 LUT     -0.333362
    158 C20        72.1227   62.3194   41.5044 W2         2 LUT     -0.323439
    159 C21        86.2745   65.2298   35.1423 Z1         2 LUT      0.406104
    160 C22        87.0928   64.7764   33.9178 Z2         2 LUT     -0.404965
    161 C23        87.1000   65.7134   32.7665 Z3         2 LUT      0.391255
    162 O23        88.0093   65.1913   31.7318 S1         2 LUT     -0.528210
    163 C24        85.7186   66.0774   32.3801 W6         2 LUT     -0.258361
    164 C25        84.6956   66.1051   33.1957 Z5         2 LUT      0.133546
    165 C26        84.8310   65.6016   34.6761 W8         2 LUT     -0.147008
    166 C27        83.9331   66.2525   35.7061 Z7         2 LUT      0.023843
    167 C28        82.6727   65.8018   36.1905 Z8         2 LUT     -0.216987
    168 C29        81.9644   66.2969   37.3636 Z9         2 LUT      0.206524
    169 C30        80.8509   65.6439   37.8660 Y1         2 LUT     -0.215556
    170 C31        80.1040   65.9048   39.0868 Y2         2 LUT      0.025142
    171 C32        78.9263   65.2940   39.4727 Y3         2 LUT     -0.212209
    172 C33        78.1116   65.4586   40.7255 Y4         2 LUT      0.240937
    173 C34        76.9950   64.6125   40.8481 Y5         2 LUT     -0.218862
    174 C35        75.9459   64.5804   41.9136 Y6         2 LUT     -0.023547
    175 C36        87.0531   66.3579   35.8984 Y7         2 LUT     -0.393485
    176 C37        86.2010   64.0084   36.1303 Y7         2 LUT     -0.393485
    177 C38        83.3464   66.6908   32.8681 Y9         2 LUT     -0.387526
    178 C39        82.5248   67.5693   37.9835 W1         2 LUT     -0.322618
    179 C40        78.6295   66.1864   41.9123 W2         2 LUT     -0.358472
    180 H403       79.6846   66.0967   41.7690 R7         2 LUT      0.097720
    181 H402       78.5319   67.2503   41.9278 R7         2 LUT      0.097720
    182 H401       78.3485   65.7520   42.9037 R7         2 LUT      0.097720
    183 H393       83.4586   67.6253   38.4926 R4         2 LUT      0.082505
    184 H392       82.6456   68.3816   37.2621 R4         2 LUT      0.082505
    185 H391       81.8666   68.1729   38.6572 R4         2 LUT      0.082505
    186 H383       82.8315   66.0460   32.2124 R1         2 LUT      0.104030
    187 H382       82.6667   66.6870   33.7712 R1         2 LUT      0.104030
    188 H381       83.3805   67.6455   32.3707 R1         2 LUT      0.104030
    189 H373       85.7105   64.2900   37.0563 T4         2 LUT      0.089537
    190 H372       85.7251   63.1422   35.7833 T4         2 LUT      0.089537
    191 H371       87.1870   63.6969   36.3705 T4         2 LUT      0.089537
    192 H363       87.3449   67.2441   35.3212 T4         2 LUT      0.089537
    193 H362       86.4212   66.9047   36.6499 T4         2 LUT      0.089537
    194 H361       87.9166   65.9863   36.3703 T4         2 LUT      0.089537
    195 H222       88.1090   64.6390   34.2347 U2         2 LUT      0.127376
    196 H221       86.5493   63.8624   33.6118 U2         2 LUT      0.127376
    197 H203       71.2699   61.7112   41.5866 R7         2 LUT      0.087068
    198 H202       71.8440   62.9498   40.6219 R7         2 LUT      0.087068
    199 H201       72.8985   61.5622   41.2908 R7         2 LUT      0.087068
    200 H193       68.9270   60.3807   44.7955 R4         2 LUT      0.089716
    201 H192       67.8533   60.1464   46.2988 R4         2 LUT      0.089716
    202 H191       67.3449   60.8339   44.7109 R4         2 LUT      0.089716
    203 H183       64.4686   64.8132   47.6036 R1         2 LUT      0.094572
    204 H182       66.0559   65.6296   47.4917 R1         2 LUT      0.094572
    205 H181       65.6254   64.0766   46.8140 R1         2 LUT      0.094572
    206 H173       68.4696   60.8591   50.2160 T4         2 LUT      0.093752
    207 H172       69.2872   62.4191   50.4079 T4         2 LUT      0.093752
    208 H171       68.5018   61.5613   51.8869 T4         2 LUT      0.093752
    209 H163       65.7312   60.6140   50.7526 T4         2 LUT      0.093752
    210 H162       66.1595   61.4015   52.2775 T4         2 LUT      0.093752
    211 H161       65.0848   62.1357   51.2113 T4         2 LUT      0.093752
    212 HO3        65.4522   66.5124   52.1813 Q1         2 LUT      0.300121
    213 H8         68.1965   63.8093   47.2890 U7         2 LUT      0.080784
    214 H7         67.4343   61.1232   48.1163 U6         2 LUT      0.042190
    215 H42        64.2699   64.0826   50.3035 U5         2 LUT      0.145166
    216 H41        64.8568   65.6644   49.8334 U5         2 LUT      0.145166
    217 H35        75.9222   65.3102   42.7490 T3         2 LUT      0.077919
    218 H34        76.8164   63.9322   40.0307 T2         2 LUT      0.073626
    219 H32        78.5507   64.5192   38.7512 T1         2 LUT      0.092510
    220 H31        80.3490   66.7871   39.5740 U9         2 LUT      0.070048
    221 H30        80.5920   64.7876   37.2428 U8         2 LUT      0.085442
    222 H3         65.2350   64.1052   52.1575 U3         2 LUT     -0.031596
    223 H28        82.2392   64.9299   35.6879 U7         2 LUT      0.084728
    224 H27        84.4052   67.1308   36.2264 U6         2 LUT      0.087291
    225 H26        84.3216   64.5886   34.5840 Q6         2 LUT      0.075325
    226 H24        85.4673   66.4967   31.4302 Q5         2 LUT      0.094482
    227 H23        87.6202   66.5939   33.2273 U3         2 LUT     -0.024869
    228 H22        67.4745   63.7559   52.3450 U2         2 LUT      0.127376
    229 H21        67.8959   64.4951   50.8849 U2         2 LUT      0.127376
    230 H15        74.6700   63.1927   40.8190 T3         2 LUT      0.093200
    231 H14        73.9852   64.6366   43.4109 T2         2 LUT      0.068865
    232 H12        72.0752   63.8284   44.5993 T1         2 LUT      0.095507
    233 H11        70.0531   61.8686   43.4840 U9         2 LUT      0.068930
    234 H10        69.9880   63.7786   46.0005 U8         2 LUT      0.083911
    235 H1         87.5458   64.6435   31.0926 Q1         2 LUT      0.297311
@<TRIPOS>BOND
    1     6     1 1
    2     7     2 1
    3     8     3 1
    4     9     4 1
    5    11     4 1
    6    12     6 1
    7    13     9 1
    8    16     9 1
    9    25     5 1
   10    25    16 1
   11    26    10 1
   12    26    17 1
   13    27    18 1
   14    28    14 1
   15    28    19 1
   16    29    12 1
   17    30    13 1
   18    31    24 1
   19    32     1 1
   20    32    25 1
   21    33    21 1
   22    33    26 1
   23    34    22 1
   24    34    27 1
   25    35    23 1
   26    35    28 1
   27    36    12 1
   28    36    24 1
   29    37    13 1
   30    37    15 1
   31    38    31 1
   32    39    20 1
   33    39    32 1
   34    40     2 1
   35    40    33 1
   36    41     3 1
   37    41    34 1
   38    42     4 1
   39    42    35 1
   40    43    38 1
   41    44     5 1
   42    44    17 1
   43    44    39 1
   44    45    10 1
   45    45    18 1
   46    45    40 1
   47    46    19 1
   48    46    41 1
   49    47    14 1
   50    47    16 1
   51    47    42 1
   52    48    38 1
   53    49    48 1
   54    50    49 1
   55    51    50 1
   56    52    51 1
   57    53    51 1
   58    54    53 1
   59    55    54 1
   60    56    55 1
   61    57    56 1
   62    58    56 1
   63    59    58 1
   64    60    59 1
   65    61    60 1
   66    62    61 1
   67    63    61 1
   68    64    27 1
   69    64    46 1
   70    65     5 1
   71    65    10 1
   72    65    64 1
   73    65    14 1
   74    66    23 1
   75    67    23 1
   76    68    23 1
   77    69    22 1
   78    70    22 1
   79    71    22 1
   80    72    21 1
   81    73    21 1
   82    74    21 1
   83    75    20 1
   84    76    20 1
   85    77    20 1
   86    78    15 1
   87    79    15 1
   88    80    15 1
   89    81     8 1
   90    82     8 1
   91    83     8 1
   92    84     7 1
   93    85     7 1
   94    86     6 1
   95    87     6 1
   96    88     3 1
   97    89     3 1
   98    90     1 1
   99    91     1 1
  100    92    63 1
  101    93    63 1
  102    94    63 1
  103    95    62 1
  104    96    62 1
  105    97    62 1
  106    98    60 1
  107    99    60 1
  108   100    59 1
  109   101    59 1
  110   102    58 1
  111   103    58 1
  112   104    57 1
  113   105    57 1
  114   106    57 1
  115   107    55 1
  116   108    55 1
  117   109    54 1
  118   110    54 1
  119   111    53 1
  120   112    53 1
  121   113    19 1
  122   114    18 1
  123   115    17 1
  124   116     9 1
  125   117     2 1
  126   118    52 1
  127   119    52 1
  128   120    52 1
  129   121    51 1
  130   122    50 1
  131   123    50 1
  132   124    49 1
  133   125    49 1
  134   126    48 1
  135   127    48 1
  136   128    43 1
  137   129    43 1
  138   130    43 1
  139   131    39 1
  140   132    32 1
  141   133    31 1
  142   134    61 1
  143   135    56 1
  144   136    24 1
  145   137    24 1
  146   139   138 1
  147   140   139 1
  148   141   140 1
  149   142   140 1
  150   143   142 1
  151   144   138 1
  152   144   143 1
  153   145   144 1
  154   146   145 1
  155   147   146 1
  156   148   147 1
  157   149   148 1
  158   150   149 1
  159   151   150 1
  160   152   151 1
  161   153   152 1
  162   154   138 1
  163   155   138 1
  164   156   143 1
  165   157   147 1
  166   158   151 1
  167   160   159 1
  168   161   160 1
  169   162   161 1
  170   163   161 1
  171   164   163 1
  172   165   159 1
  173   165   164 1
  174   166   165 1
  175   167   166 1
  176   168   167 1
  177   169   168 1
  178   170   169 1
  179   171   170 1
  180   172   171 1
  181   173   172 1
  182   174   153 1
  183   174   173 1
  184   175   159 1
  185   176   159 1
  186   177   164 1
  187   178   168 1
  188   179   172 1
  189   180   179 1
  190   181   179 1
  191   182   179 1
  192   183   178 1
  193   184   178 1
  194   185   178 1
  195   186   177 1
  196   187   177 1
  197   188   177 1
  198   189   176 1
  199   190   176 1
  200   191   176 1
  201   192   175 1
  202   193   175 1
  203   194   175 1
  204   195   160 1
  205   196   160 1
  206   197   158 1
  207   198   158 1
  208   199   158 1
  209   200   157 1
  210   201   157 1
  211   202   157 1
  212   203   156 1
  213   204   156 1
  214   205   156 1
  215   206   155 1
  216   207   155 1
  217   208   155 1
  218   209   154 1
  219   210   154 1
  220   211   154 1
  221   212   141 1
  222   213   146 1
  223   214   145 1
  224   215   142 1
  225   216   142 1
  226   217   174 1
  227   218   173 1
  228   219   171 1
  229   220   170 1
  230   221   169 1
  231   222   140 1
  232   223   167 1
  233   224   166 1
  234   225   165 1
  235   226   163 1
  236   227   161 1
  237   228   139 1
  238   229   139 1
  239   230   153 1
  240   231   152 1
  241   232   150 1
  242   233   149 1
  243   234   148 1
  244   235   162 1
  245   65    153 1
  246   65    174 1
@<TRIPOS>SUBSTRUCTURE
      1 CLA               1 ****               0 ****  **** 
      2 LUT             138 ****               0 ****  **** 
