@<TRIPOS>MOLECULE
Cpptraj generated mol2 file.
  235   246     2     0     0
SMALL
USER_CHARGES


@<TRIPOS>ATOM
      1 CAA        80.1077   58.7084   35.0023 a2         1 CLA     -0.055900
      2 CAB        79.7557   62.5619   43.8420 c8         1 CLA     -0.148500
      3 CAC        72.7857   58.7505   43.3035 a2         1 CLA     -0.012600
      4 CAD        75.5667   56.1633   36.1673 ck         1 CLA      0.398800
      5 NA         78.9006   58.9939   38.2968 ns         1 CLA     -0.225500
      6 CBA        81.2358   58.3602   33.9770 a2         1 CLA     -0.135000
      7 CBB        80.8840   62.6714   44.5837 c0         1 CLA     -0.395200
      8 CBC        72.8794   57.2673   43.4773 a3         1 CLA     -0.037700
      9 CBD        77.0555   56.6980   35.8146 a1         1 CLA     -0.053900
     10 NB         78.7114   60.5563   40.8301 nm         1 CLA     -0.295700
     11 OBD        74.9444   55.4121   35.4506 o2         1 CLA     -0.494600
     12 CGA        81.5723   56.8898   33.8174 c4         1 CLA      0.827000
     13 CGD        77.9187   55.4420   35.5740 c4         1 CLA      0.655300
     14 ND         75.9412   58.3172   38.8383 nm         1 CLA     -0.291600
     15 CED        78.8391   53.6539   36.9526 a3         1 CLA      0.005400
     16 CHA        77.4623   57.5777   36.9429 cs         1 CLA     -0.123800
     17 CHB        80.6355   60.4093   39.3518 aa         1 CLA     -0.291900
     18 CHC        77.2802   61.0981   42.7265 aa         1 CLA     -0.090400
     19 CHD        74.0241   58.3594   40.4100 aa         1 CLA     -0.052000
     20 CMA        82.1323   57.9824   37.9881 a3         1 CLA     -0.230700
     21 CMB        82.0284   62.3637   41.3383 a3         1 CLA     -0.180800
     22 CMC        74.8630   60.5441   44.7912 a3         1 CLA     -0.134000
     23 CMD        72.8581   56.3683   38.3292 a3         1 CLA     -0.141100
     24 C1         82.4677   54.9172   34.8665 a2         1 CLA      0.023000
     25 C1A        78.7413   58.1445   37.2598 ac         1 CLA     -0.015100
     26 C1B        80.0075   60.8526   40.4647 cr         1 CLA      0.054700
     27 C1C        76.1350   60.4067   42.4025 cn         1 CLA     -0.005600
     28 C1D        74.6273   57.9308   39.1956 ap         1 CLA     -0.047300
     29 O1A        81.3652   56.1943   32.8133 o2         1 CLA     -0.610800
     30 O1D        78.7243   55.2296   34.6918 o2         1 CLA     -0.558200
     31 C2         83.0247   54.5674   36.2307 c8         1 CLA     -0.325100
     32 C2A        80.1147   58.0881   36.4980 a1         1 CLA      0.098600
     33 C2B        80.6186   61.7393   41.4627 cb         1 CLA      0.088500
     34 C2C        74.9936   60.1622   43.3533 cb         1 CLA      0.053700
     35 C2D        74.1671   56.9965   38.3115 cb         1 CLA      0.058900
     36 O2A        82.2173   56.3850   34.8818 o1         1 CLA     -0.437200
     37 O2D        77.8970   54.7854   36.7284 o1         1 CLA     -0.357600
     38 C3         84.3417   54.2081   36.3763 c5         1 CLA      0.031200
     39 C3A        81.1015   58.9350   37.3466 a1         1 CLA      0.166800
     40 C3B        79.7165   61.7530   42.5881 cb         1 CLA      0.035000
     41 C3C        74.1011   59.3537   42.7137 cb         1 CLA     -0.089900
     42 C3D        75.2377   56.8101   37.4094 cb         1 CLA     -0.035900
     43 C4         84.9236   52.8694   36.2127 a3         1 CLA     -0.053300
     44 C4A        80.1891   59.4678   38.4326 ac         1 CLA      0.001800
     45 C4B        78.4851   61.1121   42.0870 cn         1 CLA     -0.020900
     46 C4C        74.6494   59.0924   41.4060 cr         1 CLA     -0.044400
     47 C4D        76.2939   57.5973   37.7945 c6         1 CLA     -0.046000
     48 C5         85.4511   55.3232   36.5606 a2         1 CLA     -0.070400
     49 C6         85.8140   55.6391   37.9765 a2         1 CLA      0.043900
     50 C7         86.8939   56.7089   38.0535 a2         1 CLA     -0.150000
     51 C8         88.2909   56.3689   38.6216 a1         1 CLA      0.064200
     52 C9         88.8795   55.1389   37.9869 a3         1 CLA     -0.259300
     53 C10        88.3666   56.2136   40.1337 a2         1 CLA     -0.071900
     54 C11        88.0656   57.3798   41.0820 a2         1 CLA      0.014500
     55 C12        88.3182   57.0474   42.5862 a2         1 CLA     -0.112100
     56 C13        88.0218   58.2710   43.4759 a1         1 CLA      0.089200
     57 C14        88.5877   57.9236   44.8451 a3         1 CLA     -0.239100
     58 C15        86.4645   58.5402   43.6614 a2         1 CLA     -0.102200
     59 C16        86.0379   59.9289   44.2815 a2         1 CLA      0.023900
     60 C17        84.6126   59.8404   44.9691 a2         1 CLA     -0.105700
     61 C18        84.6133   59.3207   46.4716 a1         1 CLA      0.206800
     62 C19        85.0567   60.4573   47.4694 a3         1 CLA     -0.280100
     63 C20        83.1763   58.8173   46.8742 a3         1 CLA     -0.280100
     64 NC         75.8994   59.7653   41.2462 nx         1 CLA     -0.309200
     65 MG         77.2503   59.5801   39.7024 mg         1 CLA      0.895000
     66 HMD3       72.0357   57.0268   38.1718 dc         1 CLA      0.064300
     67 HMD2       72.8618   55.7152   37.4414 dc         1 CLA      0.064300
     68 HMD1       72.7476   55.9182   39.1787 dc         1 CLA      0.064300
     69 HMC3       74.5779   59.6325   45.3359 dc         1 CLA      0.052100
     70 HMC2       75.6815   61.0998   45.2261 dc         1 CLA      0.052100
     71 HMC1       74.0216   61.1554   44.8753 dc         1 CLA      0.052100
     72 HMB3       81.9889   62.7685   40.3276 dc         1 CLA      0.063600
     73 HMB2       82.0995   63.0644   42.2137 dc         1 CLA      0.063600
     74 HMB1       82.7223   61.5031   41.5136 dc         1 CLA      0.063600
     75 HMA3       82.5688   58.4197   38.8785 dc         1 CLA      0.058300
     76 HMA2       81.7551   57.0137   38.2631 dc         1 CLA      0.058300
     77 HMA1       82.7714   57.7949   37.1197 dc         1 CLA      0.058300
     78 HED3       78.7166   52.9961   36.0689 dc         1 CLA      0.079300
     79 HED2       79.8578   53.9784   36.8474 dc         1 CLA      0.079300
     80 HED1       78.7386   53.1474   37.9237 dc         1 CLA      0.079300
     81 HBC3       73.0515   56.8146   42.4896 dc         1 CLA      0.016300
     82 HBC2       73.6879   56.9345   44.1048 dc         1 CLA      0.016300
     83 HBC1       71.9427   56.9477   44.0667 dc         1 CLA      0.016300
     84 HBB2       80.9375   63.1855   45.5330 da         1 CLA      0.183000
     85 HBB1       81.8943   62.3066   44.2297 da         1 CLA      0.183000
     86 HBA2       80.9745   58.8187   33.0342 dc         1 CLA      0.029400
     87 HBA1       82.1194   58.9084   34.3095 dc         1 CLA      0.029400
     88 HAC2       72.5068   59.2249   44.2436 dc         1 CLA      0.029300
     89 HAC1       72.0537   58.9465   42.5257 dc         1 CLA      0.029300
     90 HAA2       79.2505   58.2802   34.4429 dc         1 CLA      0.028700
     91 HAA1       79.9605   59.7398   35.1681 dc         1 CLA      0.028700
     92 H203       82.4222   59.6409   46.8812 dc         1 CLA      0.065600
     93 H202       82.8867   58.0252   46.1776 dc         1 CLA      0.065600
     94 H201       83.1286   58.4227   47.8904 dc         1 CLA      0.065600
     95 H193       84.5444   61.3423   47.1103 dc         1 CLA      0.065600
     96 H192       84.7435   60.0610   48.4342 dc         1 CLA      0.065600
     97 H191       86.1316   60.4311   47.3759 dc         1 CLA      0.065600
     98 H172       84.1258   60.7658   44.9148 dc         1 CLA      0.027600
     99 H171       84.1604   59.1480   44.3086 dc         1 CLA      0.027600
    100 H162       86.7847   60.3197   45.0836 dc         1 CLA      0.002900
    101 H161       86.0696   60.6887   43.4886 dc         1 CLA      0.002900
    102 H152       85.9568   58.4054   42.7469 dc         1 CLA      0.029100
    103 H151       86.1244   57.7980   44.2883 dc         1 CLA      0.029100
    104 H143       89.5293   57.5089   44.8280 dc         1 CLA      0.063600
    105 H142       88.6527   58.8554   45.3247 dc         1 CLA      0.063600
    106 H141       87.9374   57.1554   45.3091 dc         1 CLA      0.063600
    107 H122       87.6602   56.2397   42.8935 dc         1 CLA      0.032500
    108 H121       89.3691   56.7005   42.7810 dc         1 CLA      0.032500
    109 H112       88.7318   58.2372   40.7918 dc         1 CLA      0.006600
    110 H111       87.0075   57.6847   41.0302 dc         1 CLA      0.006600
    111 H102       87.6493   55.4557   40.3937 dc         1 CLA      0.024100
    112 H101       89.3536   55.8558   40.4478 dc         1 CLA      0.024100
    113 HHD        73.0019   58.0102   40.7133 da         1 CLA      0.174300
    114 HHC        77.3873   61.5898   43.6713 da         1 CLA      0.136800
    115 HHB        81.7363   60.8031   39.2574 da         1 CLA      0.138300
    116 HBD        77.0483   57.2793   34.8629 dc         1 CLA      0.107700
    117 HAB        78.8621   62.9198   44.3360 da         1 CLA      0.155200
    118 H93        88.2533   54.2963   38.3161 dc         1 CLA      0.069500
    119 H92        89.0846   55.2054   36.8910 dc         1 CLA      0.069500
    120 H91        89.7918   54.9457   38.5267 dc         1 CLA      0.069500
    121 H8         88.9995   57.2015   38.3004 dc         1 CLA      0.029300
    122 H72        86.9543   57.0648   37.0509 dc         1 CLA      0.044400
    123 H71        86.5405   57.5597   38.6529 dc         1 CLA      0.044400
    124 H62        85.0599   56.1314   38.5021 dc         1 CLA      0.015600
    125 H61        86.0707   54.7160   38.5213 dc         1 CLA      0.015600
    126 H52        86.3322   54.9785   36.0485 dc         1 CLA      0.033200
    127 H51        85.0793   56.2451   36.1248 dc         1 CLA      0.033200
    128 H43        84.9815   52.6395   35.1768 dc         1 CLA      0.037000
    129 H42        85.9321   52.7764   36.7444 dc         1 CLA      0.037000
    130 H41        84.2787   52.1337   36.7434 dc         1 CLA      0.037000
    131 H3A        81.7029   59.7763   36.9084 dc         1 CLA      0.041100
    132 H2A        80.2750   57.0214   36.3900 dc         1 CLA      0.083100
    133 H2         82.3033   54.5705   37.0666 da         1 CLA      0.180900
    134 H18        85.2620   58.4012   46.4087 dc         1 CLA     -0.003900
    135 H13        88.6765   59.0778   43.0503 dc         1 CLA      0.019700
    136 H12        81.5961   54.4342   34.5006 dc         1 CLA      0.120400
    137 H11        83.2519   54.6518   34.1783 dc         1 CLA      0.120400
    138 C1         70.2783   62.3876   50.2787 Z1         2 LUT      0.509236
    139 C2         69.1137   61.9775   51.1933 Z2         2 LUT     -0.434695
    140 C3         68.0511   62.9529   51.3486 Z3         2 LUT      0.437453
    141 O3         68.3546   63.6665   52.5997 S1         2 LUT     -0.547129
    142 C4         67.9314   64.0417   50.2870 Z4         2 LUT     -0.468603
    143 C5         68.6933   63.8890   49.0221 Z5         2 LUT      0.279246
    144 C6         69.7533   63.0732   49.0007 Z6         2 LUT     -0.305473
    145 C7         70.2886   62.6449   47.6715 Z7         2 LUT      0.069402
    146 C8         71.2454   63.1673   46.8733 Z8         2 LUT     -0.191631
    147 C9         71.5990   62.8779   45.5100 Z9         2 LUT      0.196698
    148 C10        72.6899   63.4680   45.0111 Y1         2 LUT     -0.208611
    149 C11        73.2266   63.3330   43.7118 Y2         2 LUT      0.030784
    150 C12        74.4624   63.8913   43.4871 Y3         2 LUT     -0.220316
    151 C13        75.2401   63.8818   42.3404 Y4         2 LUT      0.215937
    152 C14        76.4539   64.5669   42.2994 Y5         2 LUT     -0.185793
    153 C15        77.4450   64.6857   41.3191 Y6         2 LUT     -0.057835
    154 C16        71.1455   61.1669   50.0099 Y7         2 LUT     -0.405615
    155 C17        70.9573   63.4508   51.0946 Y7         2 LUT     -0.405615
    156 C18        68.0768   64.6798   47.8691 Y9         2 LUT     -0.369639
    157 C19        70.6998   61.8372   44.7725 W1         2 LUT     -0.333362
    158 C20        74.6601   63.0837   41.1481 W2         2 LUT     -0.323439
    159 C21        88.4193   65.5543   35.3366 Z1         2 LUT      0.406104
    160 C22        89.0493   64.6157   34.2965 Z2         2 LUT     -0.404965
    161 C23        89.5987   65.2214   32.9494 Z3         2 LUT      0.391255
    162 O23        89.7656   64.0742   32.1035 S1         2 LUT     -0.528210
    163 C24        88.5784   66.3146   32.5459 W6         2 LUT     -0.258361
    164 C25        87.4724   66.6588   33.2742 Z5         2 LUT      0.133546
    165 C26        87.0965   65.9787   34.6288 W8         2 LUT     -0.147008
    166 C27        86.2829   66.8633   35.5405 Z7         2 LUT      0.023843
    167 C28        85.0273   66.5744   36.0040 Z8         2 LUT     -0.216987
    168 C29        84.4506   67.0639   37.2950 Z9         2 LUT      0.206524
    169 C30        83.5989   66.2723   37.9746 Y1         2 LUT     -0.215556
    170 C31        82.9220   66.4551   39.2363 Y2         2 LUT      0.025142
    171 C32        81.8592   65.6976   39.6669 Y3         2 LUT     -0.212209
    172 C33        81.0377   65.9584   40.8009 Y4         2 LUT      0.240937
    173 C34        79.7686   65.3983   40.7222 Y5         2 LUT     -0.218862
    174 C35        78.6209   65.3844   41.5535 Y6         2 LUT     -0.023547
    175 C36        89.4796   66.6765   35.7574 Y7         2 LUT     -0.393485
    176 C37        88.1491   64.6001   36.6063 Y7         2 LUT     -0.393485
    177 C38        86.5079   67.7342   32.7677 Y9         2 LUT     -0.387526
    178 C39        84.8966   68.3356   37.8250 W1         2 LUT     -0.322618
    179 C40        81.4331   66.9440   41.8542 W2         2 LUT     -0.358472
    180 H403       81.4120   67.9385   41.5819 R7         2 LUT      0.097720
    181 H402       80.7091   66.7865   42.6973 R7         2 LUT      0.097720
    182 H401       82.4234   66.7676   42.2231 R7         2 LUT      0.097720
    183 H393       85.0138   69.1401   37.0966 R4         2 LUT      0.082505
    184 H392       84.2355   68.8044   38.6127 R4         2 LUT      0.082505
    185 H391       85.8601   68.2374   38.3347 R4         2 LUT      0.082505
    186 H383       85.8820   67.2696   31.9316 R1         2 LUT      0.104030
    187 H382       85.7909   68.0638   33.4776 R1         2 LUT      0.104030
    188 H381       86.9428   68.6519   32.4294 R1         2 LUT      0.104030
    189 H373       87.4335   64.9836   37.3382 T4         2 LUT      0.089537
    190 H372       87.5438   63.7344   36.2990 T4         2 LUT      0.089537
    191 H371       89.0984   64.3823   37.0803 T4         2 LUT      0.089537
    192 H363       89.2282   67.2896   36.6537 T4         2 LUT      0.089537
    193 H362       90.4824   66.2831   35.8617 T4         2 LUT      0.089537
    194 H361       89.5267   67.4184   34.9109 T4         2 LUT      0.089537
    195 H222       89.9366   64.2045   34.8170 U2         2 LUT      0.127376
    196 H221       88.3468   63.8512   34.0287 U2         2 LUT      0.127376
    197 H203       73.8532   63.6106   40.6789 R7         2 LUT      0.087068
    198 H202       75.4441   62.8808   40.4454 R7         2 LUT      0.087068
    199 H201       74.4093   62.0924   41.3436 R7         2 LUT      0.087068
    200 H193       70.6536   60.8512   45.2441 R4         2 LUT      0.089716
    201 H192       69.5753   62.0841   44.6995 R4         2 LUT      0.089716
    202 H191       70.9524   61.7643   43.7519 R4         2 LUT      0.089716
    203 H183       67.0659   64.9684   48.0204 R1         2 LUT      0.094572
    204 H182       68.5630   65.6589   47.7157 R1         2 LUT      0.094572
    205 H181       68.0707   64.1391   46.9329 R1         2 LUT      0.094572
    206 H173       72.0125   63.3301   50.8757 T4         2 LUT      0.093752
    207 H172       70.8124   64.4983   50.8697 T4         2 LUT      0.093752
    208 H171       70.9261   63.2787   52.1667 T4         2 LUT      0.093752
    209 H163       71.9256   61.4140   49.2613 T4         2 LUT      0.093752
    210 H162       71.6184   60.7779   50.9020 T4         2 LUT      0.093752
    211 H161       70.5239   60.2825   49.5624 T4         2 LUT      0.093752
    212 HO3        68.2822   63.1045   53.3875 Q1         2 LUT      0.300121
    213 H8         71.7350   64.0165   47.3196 U7         2 LUT      0.080784
    214 H7         69.6493   61.9132   47.1759 U6         2 LUT      0.042190
    215 H42        66.8448   64.2192   50.1457 U5         2 LUT      0.145166
    216 H41        68.2251   65.0217   50.7184 U5         2 LUT      0.145166
    217 H35        78.7809   65.9287   42.4960 T3         2 LUT      0.077919
    218 H34        79.6384   64.6791   39.8644 T2         2 LUT      0.073626
    219 H32        81.5368   65.0039   38.8790 T1         2 LUT      0.092510
    220 H31        83.0485   67.3572   39.8212 U9         2 LUT      0.070048
    221 H30        83.3857   65.2707   37.5381 U8         2 LUT      0.085442
    222 H3         67.0837   62.4174   51.4921 U3         2 LUT     -0.031596
    223 H28        84.5853   65.6797   35.5815 U7         2 LUT      0.084728
    224 H27        86.8883   67.5641   36.1004 U6         2 LUT      0.087291
    225 H26        86.5195   65.1135   34.4381 Q6         2 LUT      0.075325
    226 H24        88.7844   66.7966   31.6306 Q5         2 LUT      0.094482
    227 H23        90.5163   65.6598   33.2070 U3         2 LUT     -0.024869
    228 H22        68.5240   61.2001   50.6287 U2         2 LUT      0.127376
    229 H21        69.4745   61.5757   52.1303 U2         2 LUT      0.127376
    230 H15        77.4377   64.1977   40.3810 T3         2 LUT      0.093200
    231 H14        76.7982   65.1034   43.1993 T2         2 LUT      0.068865
    232 H12        74.8383   64.5811   44.2783 T1         2 LUT      0.095507
    233 H11        72.7463   62.7271   42.8915 U9         2 LUT      0.068930
    234 H10        73.2582   64.2865   45.6263 U8         2 LUT      0.083911
    235 H1         89.6115   64.1648   31.1744 Q1         2 LUT      0.297311
@<TRIPOS>BOND
    1     6     1 1
    2     7     2 1
    3     8     3 1
    4     9     4 1
    5    11     4 1
    6    12     6 1
    7    13     9 1
    8    16     9 1
    9    25     5 1
   10    25    16 1
   11    26    10 1
   12    26    17 1
   13    27    18 1
   14    28    14 1
   15    28    19 1
   16    29    12 1
   17    30    13 1
   18    31    24 1
   19    32     1 1
   20    32    25 1
   21    33    21 1
   22    33    26 1
   23    34    22 1
   24    34    27 1
   25    35    23 1
   26    35    28 1
   27    36    12 1
   28    36    24 1
   29    37    13 1
   30    37    15 1
   31    38    31 1
   32    39    20 1
   33    39    32 1
   34    40     2 1
   35    40    33 1
   36    41     3 1
   37    41    34 1
   38    42     4 1
   39    42    35 1
   40    43    38 1
   41    44     5 1
   42    44    17 1
   43    44    39 1
   44    45    10 1
   45    45    18 1
   46    45    40 1
   47    46    19 1
   48    46    41 1
   49    47    14 1
   50    47    16 1
   51    47    42 1
   52    48    38 1
   53    49    48 1
   54    50    49 1
   55    51    50 1
   56    52    51 1
   57    53    51 1
   58    54    53 1
   59    55    54 1
   60    56    55 1
   61    57    56 1
   62    58    56 1
   63    59    58 1
   64    60    59 1
   65    61    60 1
   66    62    61 1
   67    63    61 1
   68    64    27 1
   69    64    46 1
   70    65     5 1
   71    65    10 1
   72    65    64 1
   73    65    14 1
   74    66    23 1
   75    67    23 1
   76    68    23 1
   77    69    22 1
   78    70    22 1
   79    71    22 1
   80    72    21 1
   81    73    21 1
   82    74    21 1
   83    75    20 1
   84    76    20 1
   85    77    20 1
   86    78    15 1
   87    79    15 1
   88    80    15 1
   89    81     8 1
   90    82     8 1
   91    83     8 1
   92    84     7 1
   93    85     7 1
   94    86     6 1
   95    87     6 1
   96    88     3 1
   97    89     3 1
   98    90     1 1
   99    91     1 1
  100    92    63 1
  101    93    63 1
  102    94    63 1
  103    95    62 1
  104    96    62 1
  105    97    62 1
  106    98    60 1
  107    99    60 1
  108   100    59 1
  109   101    59 1
  110   102    58 1
  111   103    58 1
  112   104    57 1
  113   105    57 1
  114   106    57 1
  115   107    55 1
  116   108    55 1
  117   109    54 1
  118   110    54 1
  119   111    53 1
  120   112    53 1
  121   113    19 1
  122   114    18 1
  123   115    17 1
  124   116     9 1
  125   117     2 1
  126   118    52 1
  127   119    52 1
  128   120    52 1
  129   121    51 1
  130   122    50 1
  131   123    50 1
  132   124    49 1
  133   125    49 1
  134   126    48 1
  135   127    48 1
  136   128    43 1
  137   129    43 1
  138   130    43 1
  139   131    39 1
  140   132    32 1
  141   133    31 1
  142   134    61 1
  143   135    56 1
  144   136    24 1
  145   137    24 1
  146   139   138 1
  147   140   139 1
  148   141   140 1
  149   142   140 1
  150   143   142 1
  151   144   138 1
  152   144   143 1
  153   145   144 1
  154   146   145 1
  155   147   146 1
  156   148   147 1
  157   149   148 1
  158   150   149 1
  159   151   150 1
  160   152   151 1
  161   153   152 1
  162   154   138 1
  163   155   138 1
  164   156   143 1
  165   157   147 1
  166   158   151 1
  167   160   159 1
  168   161   160 1
  169   162   161 1
  170   163   161 1
  171   164   163 1
  172   165   159 1
  173   165   164 1
  174   166   165 1
  175   167   166 1
  176   168   167 1
  177   169   168 1
  178   170   169 1
  179   171   170 1
  180   172   171 1
  181   173   172 1
  182   174   153 1
  183   174   173 1
  184   175   159 1
  185   176   159 1
  186   177   164 1
  187   178   168 1
  188   179   172 1
  189   180   179 1
  190   181   179 1
  191   182   179 1
  192   183   178 1
  193   184   178 1
  194   185   178 1
  195   186   177 1
  196   187   177 1
  197   188   177 1
  198   189   176 1
  199   190   176 1
  200   191   176 1
  201   192   175 1
  202   193   175 1
  203   194   175 1
  204   195   160 1
  205   196   160 1
  206   197   158 1
  207   198   158 1
  208   199   158 1
  209   200   157 1
  210   201   157 1
  211   202   157 1
  212   203   156 1
  213   204   156 1
  214   205   156 1
  215   206   155 1
  216   207   155 1
  217   208   155 1
  218   209   154 1
  219   210   154 1
  220   211   154 1
  221   212   141 1
  222   213   146 1
  223   214   145 1
  224   215   142 1
  225   216   142 1
  226   217   174 1
  227   218   173 1
  228   219   171 1
  229   220   170 1
  230   221   169 1
  231   222   140 1
  232   223   167 1
  233   224   166 1
  234   225   165 1
  235   226   163 1
  236   227   161 1
  237   228   139 1
  238   229   139 1
  239   230   153 1
  240   231   152 1
  241   232   150 1
  242   233   149 1
  243   234   148 1
  244   235   162 1
  245   65    153 1
  246   65    174 1
@<TRIPOS>SUBSTRUCTURE
      1 CLA               1 ****               0 ****  **** 
      2 LUT             138 ****               0 ****  **** 
