@<TRIPOS>MOLECULE
Cpptraj generated mol2 file.
  235   246     2     0     0
SMALL
USER_CHARGES


@<TRIPOS>ATOM
      1 CAA        77.9024   58.8077   34.9279 a2         1 CLA     -0.055900
      2 CAB        77.3658   62.3210   44.0849 c8         1 CLA     -0.148500
      3 CAC        70.6915   57.8738   43.4838 a2         1 CLA     -0.012600
      4 CAD        73.4121   56.4757   35.8666 ck         1 CLA      0.398800
      5 NA         76.6581   58.9749   38.4311 ns         1 CLA     -0.225500
      6 CBA        79.2250   58.6414   34.2212 a2         1 CLA     -0.135000
      7 CBB        76.4086   63.0088   44.6950 c0         1 CLA     -0.395200
      8 CBC        70.5678   56.3369   43.2073 a3         1 CLA     -0.037700
      9 CBD        74.8796   57.0928   35.6110 a1         1 CLA     -0.053900
     10 NB         76.3243   60.3451   41.1022 nm         1 CLA     -0.295700
     11 OBD        72.8620   55.7322   35.0998 o2         1 CLA     -0.494600
     12 CGA        79.6019   57.2297   33.7754 c4         1 CLA      0.827000
     13 CGD        75.8426   55.9628   35.2098 c4         1 CLA      0.655300
     14 ND         73.8001   58.1668   38.8808 nm         1 CLA     -0.291600
     15 CED        76.1318   53.5798   35.2390 a3         1 CLA      0.005400
     16 CHA        75.2926   57.8359   36.8951 cs         1 CLA     -0.123800
     17 CHB        78.3212   60.2773   39.5933 aa         1 CLA     -0.291900
     18 CHC        75.0001   60.5256   43.1310 aa         1 CLA     -0.090400
     19 CHD        71.8757   57.9182   40.3661 aa         1 CLA     -0.052000
     20 CMA        80.0722   57.9427   38.0279 a3         1 CLA     -0.230700
     21 CMB        79.4881   62.2563   41.6455 a3         1 CLA     -0.180800
     22 CMC        72.6982   59.8026   45.0125 a3         1 CLA     -0.134000
     23 CMD        70.7207   55.9929   38.0884 a3         1 CLA     -0.141100
     24 C1         80.9184   55.3451   34.2291 a2         1 CLA      0.023000
     25 C1A        76.5396   58.3907   37.1884 ac         1 CLA     -0.015100
     26 C1B        77.6182   60.6752   40.7779 cr         1 CLA      0.054700
     27 C1C        73.9034   59.7739   42.7216 cn         1 CLA     -0.005600
     28 C1D        72.5229   57.7152   39.0893 ap         1 CLA     -0.047300
     29 O1A        79.5232   56.7867   32.6250 o2         1 CLA     -0.610800
     30 O1D        76.7832   56.0080   34.4538 o2         1 CLA     -0.558200
     31 C2         81.8652   54.6313   35.1753 c8         1 CLA     -0.325100
     32 C2A        77.8871   58.2218   36.4063 a1         1 CLA      0.098600
     33 C2B        78.1629   61.5826   41.7833 cb         1 CLA      0.088500
     34 C2C        72.7903   59.4612   43.6667 cb         1 CLA      0.053700
     35 C2D        72.0257   56.9111   38.0455 cb         1 CLA      0.058900
     36 O2A        80.3288   56.5748   34.7790 o1         1 CLA     -0.437200
     37 O2D        75.3624   54.7357   35.6163 o1         1 CLA     -0.357600
     38 C3         83.1743   54.9405   35.4545 c5         1 CLA      0.031200
     39 C3A        78.8511   58.8737   37.4496 a1         1 CLA      0.166800
     40 C3B        77.2264   61.6542   42.8350 cb         1 CLA      0.035000
     41 C3C        71.9306   58.6174   42.9414 cb         1 CLA     -0.089900
     42 C3D        73.0456   56.9807   37.1495 cb         1 CLA     -0.035900
     43 C4         84.2702   54.6453   34.5408 a3         1 CLA     -0.053300
     44 C4A        77.9309   59.4002   38.6054 ac         1 CLA      0.001800
     45 C4B        76.1096   60.8469   42.3712 cn         1 CLA     -0.020900
     46 C4C        72.4649   58.5084   41.5574 cr         1 CLA     -0.044400
     47 C4D        74.0981   57.7917   37.6806 c6         1 CLA     -0.046000
     48 C5         83.3628   55.9294   36.5718 a2         1 CLA     -0.070400
     49 C6         83.8215   55.2760   37.8333 a2         1 CLA      0.043900
     50 C7         83.6468   56.1075   39.0883 a2         1 CLA     -0.150000
     51 C8         84.4344   57.4001   39.1964 a1         1 CLA      0.064200
     52 C9         86.0063   57.1642   38.9665 a3         1 CLA     -0.259300
     53 C10        84.2319   58.1531   40.5788 a2         1 CLA     -0.071900
     54 C11        82.7184   58.1198   41.1137 a2         1 CLA      0.014500
     55 C12        82.4416   59.2289   42.1042 a2         1 CLA     -0.112100
     56 C13        83.4940   59.4913   43.2441 a1         1 CLA      0.089200
     57 C14        83.5510   58.1240   44.0502 a3         1 CLA     -0.239100
     58 C15        82.9359   60.6019   44.0723 a2         1 CLA     -0.102200
     59 C16        83.9209   61.2046   45.0900 a2         1 CLA      0.023900
     60 C17        83.4742   62.4824   45.8535 a2         1 CLA     -0.105700
     61 C18        82.2924   62.2349   46.8583 a1         1 CLA      0.206800
     62 C19        82.5331   63.1432   48.0573 a3         1 CLA     -0.280100
     63 C20        80.9351   62.5154   46.2567 a3         1 CLA     -0.280100
     64 NC         73.6541   59.2565   41.5019 nx         1 CLA     -0.309200
     65 MG         75.1014   59.3378   39.8740 mg         1 CLA      0.895000
     66 HMD3       69.8739   56.6592   37.8628 dc         1 CLA      0.064300
     67 HMD2       70.8745   55.2422   37.3233 dc         1 CLA      0.064300
     68 HMD1       70.6956   55.4756   39.0586 dc         1 CLA      0.064300
     69 HMC3       71.7761   59.4022   45.5260 dc         1 CLA      0.052100
     70 HMC2       73.6929   59.6370   45.5051 dc         1 CLA      0.052100
     71 HMC1       72.5552   60.8852   44.8869 dc         1 CLA      0.052100
     72 HMB3       79.6619   62.3876   40.6112 dc         1 CLA      0.063600
     73 HMB2       79.4484   63.2446   42.0414 dc         1 CLA      0.063600
     74 HMB1       80.2813   61.7029   42.1218 dc         1 CLA      0.063600
     75 HMA3       79.6396   57.2153   38.7286 dc         1 CLA      0.058300
     76 HMA2       80.5698   57.4503   37.1932 dc         1 CLA      0.058300
     77 HMA1       80.7257   58.7081   38.5247 dc         1 CLA      0.058300
     78 HED3       75.6968   52.6363   35.5385 dc         1 CLA      0.079300
     79 HED2       76.2255   53.5214   34.1499 dc         1 CLA      0.079300
     80 HED1       77.0698   53.6920   35.6796 dc         1 CLA      0.079300
     81 HBC3       71.3012   55.8386   43.7450 dc         1 CLA      0.016300
     82 HBC2       69.5913   55.8675   43.3159 dc         1 CLA      0.016300
     83 HBC1       70.8878   56.0789   42.1877 dc         1 CLA      0.016300
     84 HBB2       76.5380   63.4890   45.6745 da         1 CLA      0.183000
     85 HBB1       75.3709   62.9276   44.3905 da         1 CLA      0.183000
     86 HBA2       79.2323   59.2999   33.3273 dc         1 CLA      0.029400
     87 HBA1       79.9762   59.1095   34.7705 dc         1 CLA      0.029400
     88 HAC2       70.6363   57.9274   44.5725 dc         1 CLA      0.029300
     89 HAC1       69.8433   58.3830   43.1238 dc         1 CLA      0.029300
     90 HAA2       77.1396   58.3912   34.2591 dc         1 CLA      0.028700
     91 HAA1       77.6671   59.8357   35.0398 dc         1 CLA      0.028700
     92 H203       80.7886   61.8802   45.3940 dc         1 CLA      0.065600
     93 H202       80.1136   62.2138   46.9702 dc         1 CLA      0.065600
     94 H201       80.8053   63.5301   46.0272 dc         1 CLA      0.065600
     95 H193       83.4421   62.9051   48.5605 dc         1 CLA      0.065600
     96 H192       82.7430   64.1735   47.7408 dc         1 CLA      0.065600
     97 H191       81.6573   63.1803   48.6841 dc         1 CLA      0.065600
     98 H172       84.3227   62.8649   46.3957 dc         1 CLA      0.027600
     99 H171       83.1688   63.2824   45.1834 dc         1 CLA      0.027600
    100 H162       84.1372   60.4628   45.8382 dc         1 CLA      0.002900
    101 H161       84.9052   61.4632   44.6508 dc         1 CLA      0.002900
    102 H152       82.6432   61.4346   43.4982 dc         1 CLA      0.029100
    103 H151       82.1594   60.1369   44.6517 dc         1 CLA      0.029100
    104 H143       84.2642   58.1981   44.8962 dc         1 CLA      0.063600
    105 H142       82.5192   57.9657   44.3817 dc         1 CLA      0.063600
    106 H141       83.8820   57.2989   43.3545 dc         1 CLA      0.063600
    107 H122       82.5937   60.0603   41.4514 dc         1 CLA      0.032500
    108 H121       81.3935   59.1790   42.4350 dc         1 CLA      0.032500
    109 H112       82.0186   58.2031   40.2616 dc         1 CLA      0.006600
    110 H111       82.5002   57.2640   41.6965 dc         1 CLA      0.006600
    111 H102       84.7547   57.6310   41.3396 dc         1 CLA      0.024100
    112 H101       84.5481   59.2000   40.4747 dc         1 CLA      0.024100
    113 HHD        70.8788   57.5357   40.3953 da         1 CLA      0.174300
    114 HHC        75.0662   60.7514   44.2105 da         1 CLA      0.136800
    115 HHB        79.4020   60.5187   39.4456 da         1 CLA      0.138300
    116 HBD        74.9288   57.8200   34.8197 dc         1 CLA      0.107700
    117 HAB        78.3098   62.4292   44.5184 da         1 CLA      0.155200
    118 H93        86.3611   58.1482   38.7595 dc         1 CLA      0.069500
    119 H92        86.5766   56.9145   39.8563 dc         1 CLA      0.069500
    120 H91        86.1778   56.4877   38.1543 dc         1 CLA      0.069500
    121 H8         84.1276   58.0751   38.4010 dc         1 CLA      0.029300
    122 H72        82.5766   56.2687   39.1791 dc         1 CLA      0.044400
    123 H71        83.8796   55.3603   39.8606 dc         1 CLA      0.044400
    124 H62        83.2397   54.4365   38.0023 dc         1 CLA      0.015600
    125 H61        84.8640   55.0329   37.5598 dc         1 CLA      0.015600
    126 H52        84.1062   56.7335   36.3172 dc         1 CLA      0.033200
    127 H51        82.4964   56.5345   36.5466 dc         1 CLA      0.033200
    128 H43        84.2535   55.2372   33.6497 dc         1 CLA      0.037000
    129 H42        85.2757   54.6930   34.9967 dc         1 CLA      0.037000
    130 H41        84.1025   53.5783   34.1148 dc         1 CLA      0.037000
    131 H3A        79.2853   59.6892   36.9515 dc         1 CLA      0.041100
    132 H2A        78.0522   57.1766   36.2743 dc         1 CLA      0.083100
    133 H2         81.3755   53.9060   35.7683 da         1 CLA      0.180900
    134 H18        82.2351   61.1664   47.1947 dc         1 CLA     -0.003900
    135 H13        84.5287   59.6668   42.9005 dc         1 CLA      0.019700
    136 H12        80.2047   54.6397   33.7671 dc         1 CLA      0.120400
    137 H11        81.5542   55.5907   33.3815 dc         1 CLA      0.120400
    138 C1         67.1279   61.7718   50.9750 Z1         2 LUT      0.509236
    139 C2         67.0191   63.1045   51.7658 Z2         2 LUT     -0.434695
    140 C3         65.6319   63.7358   51.9152 Z3         2 LUT      0.437453
    141 O3         65.8029   65.0319   52.4993 S1         2 LUT     -0.547129
    142 C4         64.9219   63.7089   50.5883 Z4         2 LUT     -0.468603
    143 C5         65.7061   63.1435   49.3987 Z5         2 LUT      0.279246
    144 C6         66.6114   62.0938   49.5428 Z6         2 LUT     -0.305473
    145 C7         67.5851   61.7797   48.4132 Z7         2 LUT      0.069402
    146 C8         68.3736   62.5635   47.6209 Z8         2 LUT     -0.191631
    147 C9         69.1495   62.2391   46.4185 Z9         2 LUT      0.196698
    148 C10        70.0978   63.1454   45.9603 Y1         2 LUT     -0.208611
    149 C11        70.8076   63.0654   44.7739 Y2         2 LUT      0.030784
    150 C12        71.8325   63.8876   44.3492 Y3         2 LUT     -0.220316
    151 C13        72.5858   63.6712   43.1731 Y4         2 LUT      0.215937
    152 C14        73.7163   64.4478   42.9784 Y5         2 LUT     -0.185793
    153 C15        74.7658   64.3188   41.9644 Y6         2 LUT     -0.057835
    154 C16        66.2667   60.7194   51.6079 Y7         2 LUT     -0.405615
    155 C17        68.6964   61.4409   51.0548 Y7         2 LUT     -0.405615
    156 C18        65.4934   63.9460   48.1150 Y9         2 LUT     -0.369639
    157 C19        68.8828   60.8962   45.7833 W1         2 LUT     -0.333362
    158 C20        72.1475   62.7146   42.1532 W2         2 LUT     -0.323439
    159 C21        86.0667   65.4367   35.6909 Z1         2 LUT      0.406104
    160 C22        86.9467   64.9947   34.4444 Z2         2 LUT     -0.404965
    161 C23        87.0390   65.9522   33.2885 Z3         2 LUT      0.391255
    162 O23        87.6894   65.3988   32.1270 S1         2 LUT     -0.528210
    163 C24        85.6620   66.6103   32.9986 W6         2 LUT     -0.258361
    164 C25        84.6016   66.6137   33.7720 Z5         2 LUT      0.133546
    165 C26        84.6093   65.9598   35.2234 W8         2 LUT     -0.147008
    166 C27        83.8317   66.7258   36.3054 Z7         2 LUT      0.023843
    167 C28        82.7246   66.1979   36.9254 Z8         2 LUT     -0.216987
    168 C29        82.0275   66.6525   38.1242 Z9         2 LUT      0.206524
    169 C30        80.9260   65.9025   38.5539 Y1         2 LUT     -0.215556
    170 C31        80.1765   66.0901   39.7279 Y2         2 LUT      0.025142
    171 C32        78.9981   65.4950   39.9581 Y3         2 LUT     -0.212209
    172 C33        78.1977   65.6249   41.1625 Y4         2 LUT      0.240937
    173 C34        76.9659   64.9763   41.2036 Y5         2 LUT     -0.218862
    174 C35        75.9177   65.0231   42.1334 Y6         2 LUT     -0.023547
    175 C36        86.9947   66.3877   36.5466 Y7         2 LUT     -0.393485
    176 C37        86.0477   64.1808   36.5469 Y7         2 LUT     -0.393485
    177 C38        83.3042   67.3257   33.3604 Y9         2 LUT     -0.387526
    178 C39        82.5874   67.7899   39.0260 W1         2 LUT     -0.322618
    179 C40        78.7403   66.2914   42.3689 W2         2 LUT     -0.358472
    180 H403       78.0460   66.2433   43.2172 R7         2 LUT      0.097720
    181 H402       79.6217   65.7700   42.7595 R7         2 LUT      0.097720
    182 H401       79.0707   67.3126   42.2225 R7         2 LUT      0.097720
    183 H393       82.2314   67.7451   40.0523 R4         2 LUT      0.082505
    184 H392       83.6338   67.7147   39.2287 R4         2 LUT      0.082505
    185 H391       82.3602   68.7813   38.7113 R4         2 LUT      0.082505
    186 H383       82.3290   66.8127   33.5794 R1         2 LUT      0.104030
    187 H382       83.3809   68.3682   33.8681 R1         2 LUT      0.104030
    188 H381       83.2738   67.5159   32.2576 R1         2 LUT      0.104030
    189 H373       87.0630   63.6858   36.6451 T4         2 LUT      0.089537
    190 H372       85.6430   64.3770   37.5724 T4         2 LUT      0.089537
    191 H371       85.5229   63.3306   36.1893 T4         2 LUT      0.089537
    192 H363       87.9344   65.7949   36.5380 T4         2 LUT      0.089537
    193 H362       87.2711   67.3013   36.0306 T4         2 LUT      0.089537
    194 H361       86.6913   66.5009   37.6201 T4         2 LUT      0.089537
    195 H222       87.9762   64.6826   34.7163 U2         2 LUT      0.127376
    196 H221       86.4715   64.0506   34.0693 U2         2 LUT      0.127376
    197 H203       71.7333   61.7665   42.5390 R7         2 LUT      0.087068
    198 H202       71.3640   63.1681   41.5154 R7         2 LUT      0.087068
    199 H201       72.9343   62.4143   41.4438 R7         2 LUT      0.087068
    200 H193       67.8302   60.7079   45.5209 R4         2 LUT      0.089716
    201 H192       69.4747   60.5592   44.8971 R4         2 LUT      0.089716
    202 H191       69.1022   60.1027   46.4555 R4         2 LUT      0.089716
    203 H183       65.9204   63.3584   47.2052 R1         2 LUT      0.094572
    204 H182       64.3589   64.1017   47.9678 R1         2 LUT      0.094572
    205 H181       65.9669   64.9225   48.2771 R1         2 LUT      0.094572
    206 H173       69.1943   62.2208   50.5243 T4         2 LUT      0.093752
    207 H172       68.9578   61.5583   52.0938 T4         2 LUT      0.093752
    208 H171       68.9037   60.4148   50.6806 T4         2 LUT      0.093752
    209 H163       66.3886   59.7103   51.2362 T4         2 LUT      0.093752
    210 H162       66.5469   60.6984   52.6958 T4         2 LUT      0.093752
    211 H161       65.2220   61.0094   51.4955 T4         2 LUT      0.093752
    212 HO3        65.1254   65.2091   53.1560 Q1         2 LUT      0.300121
    213 H8         68.2775   63.6374   47.8001 U7         2 LUT      0.080784
    214 H7         67.5728   60.6814   48.2254 U6         2 LUT      0.042190
    215 H42        64.0699   63.0246   50.7048 U5         2 LUT      0.145166
    216 H41        64.4637   64.6983   50.3701 U5         2 LUT      0.145166
    217 H35        76.0487   65.6777   42.9597 T3         2 LUT      0.077919
    218 H34        76.7948   64.4817   40.2400 T2         2 LUT      0.073626
    219 H32        78.5985   64.7923   39.2457 T1         2 LUT      0.092510
    220 H31        80.4481   66.8629   40.3721 U9         2 LUT      0.070048
    221 H30        80.5434   65.0899   37.8833 U8         2 LUT      0.085442
    222 H3         65.0004   63.2000   52.5360 U3         2 LUT     -0.031596
    223 H28        82.0954   65.4969   36.3896 U7         2 LUT      0.084728
    224 H27        84.2746   67.5602   36.8269 U6         2 LUT      0.087291
    225 H26        84.0468   65.0448   34.8766 Q6         2 LUT      0.075325
    226 H24        85.6651   67.1536   32.0286 Q5         2 LUT      0.094482
    227 H23        87.6904   66.7378   33.5802 U3         2 LUT     -0.024869
    228 H22        67.4689   62.9711   52.8219 U2         2 LUT      0.127376
    229 H21        67.6420   63.8138   51.3103 U2         2 LUT      0.127376
    230 H15        74.7301   63.6390   41.1204 T3         2 LUT      0.093200
    231 H14        74.1236   65.0727   43.8032 T2         2 LUT      0.068865
    232 H12        72.0857   64.6847   44.9675 T1         2 LUT      0.095507
    233 H11        70.4649   62.2698   44.1314 U9         2 LUT      0.068930
    234 H10        70.2080   64.0738   46.5102 U8         2 LUT      0.083911
    235 H1         87.0931   64.7392   31.6969 Q1         2 LUT      0.297311
@<TRIPOS>BOND
    1     6     1 1
    2     7     2 1
    3     8     3 1
    4     9     4 1
    5    11     4 1
    6    12     6 1
    7    13     9 1
    8    16     9 1
    9    25     5 1
   10    25    16 1
   11    26    10 1
   12    26    17 1
   13    27    18 1
   14    28    14 1
   15    28    19 1
   16    29    12 1
   17    30    13 1
   18    31    24 1
   19    32     1 1
   20    32    25 1
   21    33    21 1
   22    33    26 1
   23    34    22 1
   24    34    27 1
   25    35    23 1
   26    35    28 1
   27    36    12 1
   28    36    24 1
   29    37    13 1
   30    37    15 1
   31    38    31 1
   32    39    20 1
   33    39    32 1
   34    40     2 1
   35    40    33 1
   36    41     3 1
   37    41    34 1
   38    42     4 1
   39    42    35 1
   40    43    38 1
   41    44     5 1
   42    44    17 1
   43    44    39 1
   44    45    10 1
   45    45    18 1
   46    45    40 1
   47    46    19 1
   48    46    41 1
   49    47    14 1
   50    47    16 1
   51    47    42 1
   52    48    38 1
   53    49    48 1
   54    50    49 1
   55    51    50 1
   56    52    51 1
   57    53    51 1
   58    54    53 1
   59    55    54 1
   60    56    55 1
   61    57    56 1
   62    58    56 1
   63    59    58 1
   64    60    59 1
   65    61    60 1
   66    62    61 1
   67    63    61 1
   68    64    27 1
   69    64    46 1
   70    65     5 1
   71    65    10 1
   72    65    64 1
   73    65    14 1
   74    66    23 1
   75    67    23 1
   76    68    23 1
   77    69    22 1
   78    70    22 1
   79    71    22 1
   80    72    21 1
   81    73    21 1
   82    74    21 1
   83    75    20 1
   84    76    20 1
   85    77    20 1
   86    78    15 1
   87    79    15 1
   88    80    15 1
   89    81     8 1
   90    82     8 1
   91    83     8 1
   92    84     7 1
   93    85     7 1
   94    86     6 1
   95    87     6 1
   96    88     3 1
   97    89     3 1
   98    90     1 1
   99    91     1 1
  100    92    63 1
  101    93    63 1
  102    94    63 1
  103    95    62 1
  104    96    62 1
  105    97    62 1
  106    98    60 1
  107    99    60 1
  108   100    59 1
  109   101    59 1
  110   102    58 1
  111   103    58 1
  112   104    57 1
  113   105    57 1
  114   106    57 1
  115   107    55 1
  116   108    55 1
  117   109    54 1
  118   110    54 1
  119   111    53 1
  120   112    53 1
  121   113    19 1
  122   114    18 1
  123   115    17 1
  124   116     9 1
  125   117     2 1
  126   118    52 1
  127   119    52 1
  128   120    52 1
  129   121    51 1
  130   122    50 1
  131   123    50 1
  132   124    49 1
  133   125    49 1
  134   126    48 1
  135   127    48 1
  136   128    43 1
  137   129    43 1
  138   130    43 1
  139   131    39 1
  140   132    32 1
  141   133    31 1
  142   134    61 1
  143   135    56 1
  144   136    24 1
  145   137    24 1
  146   139   138 1
  147   140   139 1
  148   141   140 1
  149   142   140 1
  150   143   142 1
  151   144   138 1
  152   144   143 1
  153   145   144 1
  154   146   145 1
  155   147   146 1
  156   148   147 1
  157   149   148 1
  158   150   149 1
  159   151   150 1
  160   152   151 1
  161   153   152 1
  162   154   138 1
  163   155   138 1
  164   156   143 1
  165   157   147 1
  166   158   151 1
  167   160   159 1
  168   161   160 1
  169   162   161 1
  170   163   161 1
  171   164   163 1
  172   165   159 1
  173   165   164 1
  174   166   165 1
  175   167   166 1
  176   168   167 1
  177   169   168 1
  178   170   169 1
  179   171   170 1
  180   172   171 1
  181   173   172 1
  182   174   153 1
  183   174   173 1
  184   175   159 1
  185   176   159 1
  186   177   164 1
  187   178   168 1
  188   179   172 1
  189   180   179 1
  190   181   179 1
  191   182   179 1
  192   183   178 1
  193   184   178 1
  194   185   178 1
  195   186   177 1
  196   187   177 1
  197   188   177 1
  198   189   176 1
  199   190   176 1
  200   191   176 1
  201   192   175 1
  202   193   175 1
  203   194   175 1
  204   195   160 1
  205   196   160 1
  206   197   158 1
  207   198   158 1
  208   199   158 1
  209   200   157 1
  210   201   157 1
  211   202   157 1
  212   203   156 1
  213   204   156 1
  214   205   156 1
  215   206   155 1
  216   207   155 1
  217   208   155 1
  218   209   154 1
  219   210   154 1
  220   211   154 1
  221   212   141 1
  222   213   146 1
  223   214   145 1
  224   215   142 1
  225   216   142 1
  226   217   174 1
  227   218   173 1
  228   219   171 1
  229   220   170 1
  230   221   169 1
  231   222   140 1
  232   223   167 1
  233   224   166 1
  234   225   165 1
  235   226   163 1
  236   227   161 1
  237   228   139 1
  238   229   139 1
  239   230   153 1
  240   231   152 1
  241   232   150 1
  242   233   149 1
  243   234   148 1
  244   235   162 1
  245   65    153 1
  246   65    174 1
@<TRIPOS>SUBSTRUCTURE
      1 CLA               1 ****               0 ****  **** 
      2 LUT             138 ****               0 ****  **** 
