@<TRIPOS>MOLECULE
Cpptraj generated mol2 file.
  235   246     2     0     0
SMALL
USER_CHARGES


@<TRIPOS>ATOM
      1 CAA        77.5755   57.9075   33.8971 a2         1 CLA     -0.055900
      2 CAB        77.6969   61.2944   42.9954 c8         1 CLA     -0.148500
      3 CAC        70.7741   57.2822   42.3049 a2         1 CLA     -0.012600
      4 CAD        73.4512   55.1926   34.9611 ck         1 CLA      0.398800
      5 NA         76.5698   58.1143   37.3135 ns         1 CLA     -0.225500
      6 CBA        78.8837   57.7900   33.0264 a2         1 CLA     -0.135000
      7 CBB        78.8217   61.3167   43.7240 c0         1 CLA     -0.395200
      8 CBC        70.7443   55.7926   42.4472 a3         1 CLA     -0.037700
      9 CBD        74.9163   55.8195   34.7685 a1         1 CLA     -0.053900
     10 NB         76.4359   59.6551   39.8951 nm         1 CLA     -0.295700
     11 OBD        72.8677   54.4753   34.1726 o2         1 CLA     -0.494600
     12 CGA        79.1417   56.3699   32.5420 c4         1 CLA      0.827000
     13 CGD        75.8222   54.6706   34.3941 c4         1 CLA      0.655300
     14 ND         73.7923   57.2486   37.8298 nm         1 CLA     -0.291600
     15 CED        76.5780   52.5432   35.1625 a3         1 CLA      0.005400
     16 CHA        75.2734   56.6963   35.9535 cs         1 CLA     -0.123800
     17 CHB        78.4019   59.2268   38.4914 aa         1 CLA     -0.291900
     18 CHC        75.0727   59.8889   41.9547 aa         1 CLA     -0.090400
     19 CHD        71.9428   57.1260   39.3571 aa         1 CLA     -0.052000
     20 CMA        80.0629   57.1531   36.6135 a3         1 CLA     -0.230700
     21 CMB        79.8305   61.0951   40.5337 a3         1 CLA     -0.180800
     22 CMC        72.8876   59.0400   43.9738 a3         1 CLA     -0.134000
     23 CMD        70.7272   55.0383   37.2215 a3         1 CLA     -0.141100
     24 C1         80.0689   54.2356   33.0099 a2         1 CLA      0.023000
     25 C1A        76.4512   57.3118   36.2142 ac         1 CLA     -0.015100
     26 C1B        77.7720   59.8235   39.5942 cr         1 CLA      0.054700
     27 C1C        73.9398   59.1793   41.6035 cn         1 CLA     -0.005600
     28 C1D        72.5455   56.7995   38.1091 ap         1 CLA     -0.047300
     29 O1A        78.9289   55.9993   31.3673 o2         1 CLA     -0.610800
     30 O1D        76.6381   54.5951   33.4872 o2         1 CLA     -0.558200
     31 C2         80.7294   53.6250   34.2724 c8         1 CLA     -0.325100
     32 C2A        77.7199   57.3616   35.3602 a1         1 CLA      0.098600
     33 C2B        78.4622   60.6026   40.6143 cb         1 CLA      0.088500
     34 C2C        72.9321   58.7275   42.5057 cb         1 CLA      0.053700
     35 C2D        72.0340   55.8579   37.1085 cb         1 CLA      0.058900
     36 O2A        79.7423   55.5927   33.4909 o1         1 CLA     -0.437200
     37 O2D        75.6802   53.7604   35.3728 o1         1 CLA     -0.357600
     38 C3         81.4969   52.5237   34.3639 c5         1 CLA      0.031200
     39 C3A        78.8178   58.0638   36.2881 a1         1 CLA      0.166800
     40 C3B        77.5462   60.6742   41.6755 cb         1 CLA      0.035000
     41 C3C        72.0141   57.9229   41.7801 cb         1 CLA     -0.089900
     42 C3D        73.0678   55.8412   36.1973 cb         1 CLA     -0.035900
     43 C4         80.9524   51.1522   34.6721 a3         1 CLA     -0.053300
     44 C4A        77.8870   58.5187   37.4178 ac         1 CLA      0.001800
     45 C4B        76.2599   60.1450   41.2003 cn         1 CLA     -0.020900
     46 C4C        72.4874   57.9286   40.4082 cr         1 CLA     -0.044400
     47 C4D        74.1119   56.6690   36.7012 c6         1 CLA     -0.046000
     48 C5         83.0068   52.4975   34.0227 a2         1 CLA     -0.070400
     49 C6         83.8292   53.7307   34.3903 a2         1 CLA      0.043900
     50 C7         83.9061   53.8902   35.9040 a2         1 CLA     -0.150000
     51 C8         84.3146   55.2999   36.3721 a1         1 CLA      0.064200
     52 C9         85.6001   55.9471   35.7902 a3         1 CLA     -0.259300
     53 C10        84.1859   55.6354   37.9495 a2         1 CLA     -0.071900
     54 C11        82.8560   55.3986   38.6855 a2         1 CLA      0.014500
     55 C12        82.9729   55.7024   40.2029 a2         1 CLA     -0.112100
     56 C13        81.6091   55.8956   41.0315 a1         1 CLA      0.089200
     57 C14        80.5659   56.9689   40.4518 a3         1 CLA     -0.239100
     58 C15        81.9587   56.1632   42.5599 a2         1 CLA     -0.102200
     59 C16        82.1729   57.6056   43.1217 a2         1 CLA      0.023900
     60 C17        83.5775   58.1961   42.8714 a2         1 CLA     -0.105700
     61 C18        84.2673   58.9757   44.0034 a1         1 CLA      0.206800
     62 C19        83.2890   59.8833   44.7872 a3         1 CLA     -0.280100
     63 C20        84.9389   57.9173   44.9485 a3         1 CLA     -0.280100
     64 NC         73.6846   58.6179   40.3411 nx         1 CLA     -0.309200
     65 MG         75.0700   58.6127   38.7809 mg         1 CLA      0.895000
     66 HMD3       70.8302   54.0779   36.7378 dc         1 CLA      0.064300
     67 HMD2       70.5113   54.8743   38.2598 dc         1 CLA      0.064300
     68 HMD1       69.8579   55.5599   36.7973 dc         1 CLA      0.064300
     69 HMC3       72.9853   58.0320   44.3846 dc         1 CLA      0.052100
     70 HMC2       73.7200   59.7152   44.3376 dc         1 CLA      0.052100
     71 HMC1       71.9206   59.4144   44.2199 dc         1 CLA      0.052100
     72 HMB3       79.7520   62.1009   40.9925 dc         1 CLA      0.063600
     73 HMB2       80.5392   60.5079   41.1234 dc         1 CLA      0.063600
     74 HMB1       80.0412   61.2202   39.5045 dc         1 CLA      0.063600
     75 HMA3       79.7349   56.1865   37.1032 dc         1 CLA      0.058300
     76 HMA2       80.6912   56.8982   35.6847 dc         1 CLA      0.058300
     77 HMA1       80.6566   57.6473   37.3413 dc         1 CLA      0.058300
     78 HED3       77.6191   52.9271   35.1952 dc         1 CLA      0.079300
     79 HED2       76.3404   51.8958   35.9883 dc         1 CLA      0.079300
     80 HED1       76.3799   52.1113   34.1927 dc         1 CLA      0.079300
     81 HBC3       70.9275   55.2895   41.5237 dc         1 CLA      0.016300
     82 HBC2       71.4524   55.5717   43.2271 dc         1 CLA      0.016300
     83 HBC1       69.7586   55.5573   42.8268 dc         1 CLA      0.016300
     84 HBB2       78.8235   61.5953   44.7865 da         1 CLA      0.183000
     85 HBB1       79.7582   60.7545   43.3681 da         1 CLA      0.183000
     86 HBA2       78.9013   58.4835   32.2171 dc         1 CLA      0.029400
     87 HBA1       79.7781   58.0128   33.5209 dc         1 CLA      0.029400
     88 HAC2       70.5115   57.6259   43.2761 dc         1 CLA      0.029300
     89 HAC1       69.9320   57.4756   41.6232 dc         1 CLA      0.029300
     90 HAA2       76.7567   57.4554   33.3662 dc         1 CLA      0.028700
     91 HAA1       77.3402   59.0122   34.0299 dc         1 CLA      0.028700
     92 H203       85.5407   58.3852   45.7154 dc         1 CLA      0.065600
     93 H202       84.1960   57.2768   45.4906 dc         1 CLA      0.065600
     94 H201       85.7181   57.2936   44.5095 dc         1 CLA      0.065600
     95 H193       82.4554   59.3925   45.2054 dc         1 CLA      0.065600
     96 H192       83.8129   60.4984   45.5350 dc         1 CLA      0.065600
     97 H191       82.9316   60.6103   44.1393 dc         1 CLA      0.065600
     98 H172       84.2266   57.3803   42.6175 dc         1 CLA      0.027600
     99 H171       83.6091   58.8650   42.0044 dc         1 CLA      0.027600
    100 H162       81.3365   58.2057   42.6457 dc         1 CLA      0.002900
    101 H161       82.0259   57.5424   44.1821 dc         1 CLA      0.002900
    102 H152       81.0170   55.8864   43.1461 dc         1 CLA      0.029100
    103 H151       82.7508   55.5030   42.8503 dc         1 CLA      0.029100
    104 H143       80.1415   56.5663   39.5834 dc         1 CLA      0.063600
    105 H142       79.8513   57.0509   41.2406 dc         1 CLA      0.063600
    106 H141       80.9640   58.0333   40.3912 dc         1 CLA      0.063600
    107 H122       83.5807   54.8722   40.5392 dc         1 CLA      0.032500
    108 H121       83.5505   56.5938   40.4081 dc         1 CLA      0.032500
    109 H112       82.0791   56.0543   38.2270 dc         1 CLA      0.006600
    110 H111       82.5085   54.3370   38.5677 dc         1 CLA      0.006600
    111 H102       84.9266   54.9807   38.4817 dc         1 CLA      0.024100
    112 H101       84.4392   56.6437   38.0795 dc         1 CLA      0.024100
    113 HHD        70.9786   56.6524   39.5427 da         1 CLA      0.174300
    114 HHC        75.2594   60.1408   42.9488 da         1 CLA      0.136800
    115 HHB        79.4961   59.3942   38.4509 da         1 CLA      0.138300
    116 HBD        74.8319   56.5522   33.9694 dc         1 CLA      0.107700
    117 HAB        76.7615   61.6102   43.4720 da         1 CLA      0.155200
    118 H93        86.4914   55.5704   36.3318 dc         1 CLA      0.069500
    119 H92        85.7513   55.7043   34.7828 dc         1 CLA      0.069500
    120 H91        85.7532   57.0064   35.9357 dc         1 CLA      0.069500
    121 H8         83.4282   55.8883   35.9317 dc         1 CLA      0.029300
    122 H72        82.9176   53.6322   36.2808 dc         1 CLA      0.044400
    123 H71        84.6150   53.2556   36.4216 dc         1 CLA      0.044400
    124 H62        84.8253   53.7694   33.8944 dc         1 CLA      0.015600
    125 H61        83.2600   54.5717   33.9584 dc         1 CLA      0.015600
    126 H52        83.4948   51.6674   34.5124 dc         1 CLA      0.033200
    127 H51        83.2409   52.3595   32.9628 dc         1 CLA      0.033200
    128 H43        81.4149   51.0053   35.6616 dc         1 CLA      0.037000
    129 H42        79.8475   51.1509   34.7665 dc         1 CLA      0.037000
    130 H41        81.2001   50.3933   33.9190 dc         1 CLA      0.037000
    131 H3A        79.2715   58.9544   35.8392 dc         1 CLA      0.041100
    132 H2A        78.0348   56.2737   35.3393 dc         1 CLA      0.083100
    133 H2         80.6208   54.1489   35.2214 da         1 CLA      0.180900
    134 H18        85.0405   59.5925   43.6138 dc         1 CLA     -0.003900
    135 H13        80.9995   55.0400   40.9873 dc         1 CLA      0.019700
    136 H12        79.1833   53.6769   32.7403 dc         1 CLA      0.120400
    137 H11        80.7266   54.3136   32.1219 dc         1 CLA      0.120400
    138 C1         67.0886   60.7652   49.8306 Z1         2 LUT      0.509236
    139 C2         67.1348   62.1288   50.6334 Z2         2 LUT     -0.434695
    140 C3         65.8254   62.9409   50.8454 Z3         2 LUT      0.437453
    141 O3         66.2190   64.3340   51.0810 S1         2 LUT     -0.547129
    142 C4         65.0135   62.8817   49.5677 Z4         2 LUT     -0.468603
    143 C5         65.5991   62.2232   48.3635 Z5         2 LUT      0.279246
    144 C6         66.4875   61.2053   48.4544 Z6         2 LUT     -0.305473
    145 C7         67.4311   60.8754   47.3015 Z7         2 LUT      0.069402
    146 C8         68.2527   61.6552   46.4731 Z8         2 LUT     -0.191631
    147 C9         68.8646   61.2818   45.1802 Z9         2 LUT      0.196698
    148 C10        69.9059   62.0866   44.7030 Y1         2 LUT     -0.208611
    149 C11        70.6293   61.9477   43.3837 Y2         2 LUT      0.030784
    150 C12        71.7108   62.7548   42.9576 Y3         2 LUT     -0.220316
    151 C13        72.4233   62.5431   41.6967 Y4         2 LUT      0.215937
    152 C14        73.6088   63.2174   41.5928 Y5         2 LUT     -0.185793
    153 C15        74.6465   63.1547   40.6423 Y6         2 LUT     -0.057835
    154 C16        66.0907   59.8049   50.4026 Y7         2 LUT     -0.405615
    155 C17        68.5318   60.0647   49.9007 Y7         2 LUT     -0.405615
    156 C18        65.5893   63.1998   47.1569 Y9         2 LUT     -0.369639
    157 C19        68.1057   60.1577   44.3577 W1         2 LUT     -0.333362
    158 C20        71.7778   61.7127   40.6217 W2         2 LUT     -0.323439
    159 C21        85.8495   64.4644   34.2920 Z1         2 LUT      0.406104
    160 C22        86.6657   63.8266   33.0933 Z2         2 LUT     -0.404965
    161 C23        87.1081   64.8464   32.0572 Z3         2 LUT      0.391255
    162 O23        87.8325   64.3155   30.8898 S1         2 LUT     -0.528210
    163 C24        85.9203   65.7538   31.7053 W6         2 LUT     -0.258361
    164 C25        84.7476   65.8897   32.4354 Z5         2 LUT      0.133546
    165 C26        84.5123   65.0466   33.6539 W8         2 LUT     -0.147008
    166 C27        83.6365   65.7104   34.7328 Z7         2 LUT      0.023843
    167 C28        82.5178   65.2496   35.4402 Z8         2 LUT     -0.216987
    168 C29        81.9729   65.6945   36.7164 Z9         2 LUT      0.206524
    169 C30        80.7431   65.1280   37.1002 Y1         2 LUT     -0.215556
    170 C31        80.0593   65.2646   38.3704 Y2         2 LUT      0.025142
    171 C32        79.0409   64.4440   38.7844 Y3         2 LUT     -0.212209
    172 C33        78.2123   64.5064   39.9657 Y4         2 LUT      0.240937
    173 C34        77.0323   63.7913   39.9690 Y5         2 LUT     -0.218862
    174 C35        75.8689   63.7894   40.8387 Y6         2 LUT     -0.023547
    175 C36        86.8188   65.4992   34.9607 Y7         2 LUT     -0.393485
    176 C37        85.6238   63.2042   35.2409 Y7         2 LUT     -0.393485
    177 C38        83.7489   66.9599   32.0208 Y9         2 LUT     -0.387526
    178 C39        82.8775   66.6315   37.5324 W1         2 LUT     -0.322618
    179 C40        78.4890   65.6130   40.9644 W2         2 LUT     -0.358472
    180 H403       79.2866   65.2728   41.6337 R7         2 LUT      0.097720
    181 H402       78.8062   66.5530   40.5264 R7         2 LUT      0.097720
    182 H401       77.6047   65.8726   41.6058 R7         2 LUT      0.097720
    183 H393       82.6565   67.6780   37.2563 R4         2 LUT      0.082505
    184 H392       82.7617   66.4920   38.5987 R4         2 LUT      0.082505
    185 H391       83.9244   66.4502   37.3101 R4         2 LUT      0.082505
    186 H383       84.1264   67.7997   31.3492 R1         2 LUT      0.104030
    187 H382       82.9409   66.5071   31.3191 R1         2 LUT      0.104030
    188 H381       83.2781   67.5345   32.8265 R1         2 LUT      0.104030
    189 H373       85.1281   62.4025   34.6884 T4         2 LUT      0.089537
    190 H372       86.5261   62.8444   35.6249 T4         2 LUT      0.089537
    191 H371       84.9715   63.5293   36.0116 T4         2 LUT      0.089537
    192 H363       87.8370   65.1045   35.2087 T4         2 LUT      0.089537
    193 H362       86.9599   66.3918   34.3948 T4         2 LUT      0.089537
    194 H361       86.3847   65.8645   35.9456 T4         2 LUT      0.089537
    195 H222       87.6110   63.3057   33.3002 U2         2 LUT      0.127376
    196 H221       86.0378   63.1159   32.6133 U2         2 LUT      0.127376
    197 H203       72.4354   61.5164   39.7212 R7         2 LUT      0.087068
    198 H202       71.3864   60.7182   40.9568 R7         2 LUT      0.087068
    199 H201       70.9129   62.2819   40.2037 R7         2 LUT      0.087068
    200 H193       68.6262   59.8416   43.4792 R4         2 LUT      0.089716
    201 H192       67.9962   59.2472   45.0416 R4         2 LUT      0.089716
    202 H191       67.0966   60.4065   44.0247 R4         2 LUT      0.089716
    203 H183       66.4418   63.8946   47.2223 R1         2 LUT      0.094572
    204 H182       65.5787   62.6504   46.2076 R1         2 LUT      0.094572
    205 H181       64.7012   63.7874   47.2132 R1         2 LUT      0.094572
    206 H173       69.2131   60.8779   49.5926 T4         2 LUT      0.093752
    207 H172       68.7885   59.9303   50.8991 T4         2 LUT      0.093752
    208 H171       68.5420   59.1618   49.3141 T4         2 LUT      0.093752
    209 H163       66.2639   59.7611   51.4698 T4         2 LUT      0.093752
    210 H162       65.0013   60.0341   50.1760 T4         2 LUT      0.093752
    211 H161       66.2544   58.8053   50.0106 T4         2 LUT      0.093752
    212 HO3        65.7769   64.6831   51.8704 Q1         2 LUT      0.300121
    213 H8         68.4010   62.6840   46.8309 U7         2 LUT      0.080784
    214 H7         67.2494   59.8695   47.0475 U6         2 LUT      0.042190
    215 H42        64.1761   62.2937   49.8820 U5         2 LUT      0.145166
    216 H41        64.7155   63.9534   49.3801 U5         2 LUT      0.145166
    217 H35        76.0129   64.4022   41.7092 T3         2 LUT      0.077919
    218 H34        76.9079   63.3302   39.0542 T2         2 LUT      0.073626
    219 H32        78.7841   63.6794   38.0546 T1         2 LUT      0.092510
    220 H31        80.4233   66.0424   39.0283 U9         2 LUT      0.070048
    221 H30        80.3295   64.3659   36.3883 U8         2 LUT      0.085442
    222 H3         65.2973   62.5841   51.7566 U3         2 LUT     -0.031596
    223 H28        82.0526   64.2823   35.0771 U7         2 LUT      0.084728
    224 H27        84.1427   66.6508   34.8990 U6         2 LUT      0.087291
    225 H26        83.8188   64.1872   33.3541 Q6         2 LUT      0.075325
    226 H24        86.1137   66.4889   30.9454 Q5         2 LUT      0.094482
    227 H23        87.7655   65.5560   32.4739 U3         2 LUT     -0.024869
    228 H22        67.4436   61.8862   51.6046 U2         2 LUT      0.127376
    229 H21        67.9430   62.6655   50.2222 U2         2 LUT      0.127376
    230 H15        74.5595   62.5592   39.7022 T3         2 LUT      0.093200
    231 H14        73.8094   63.8854   42.4779 T2         2 LUT      0.068865
    232 H12        72.1961   63.4887   43.6584 T1         2 LUT      0.095507
    233 H11        70.3356   61.1824   42.6936 U9         2 LUT      0.068930
    234 H10        70.1705   62.8589   45.4536 U8         2 LUT      0.083911
    235 H1         87.2966   63.8464   30.2123 Q1         2 LUT      0.297311
@<TRIPOS>BOND
    1     6     1 1
    2     7     2 1
    3     8     3 1
    4     9     4 1
    5    11     4 1
    6    12     6 1
    7    13     9 1
    8    16     9 1
    9    25     5 1
   10    25    16 1
   11    26    10 1
   12    26    17 1
   13    27    18 1
   14    28    14 1
   15    28    19 1
   16    29    12 1
   17    30    13 1
   18    31    24 1
   19    32     1 1
   20    32    25 1
   21    33    21 1
   22    33    26 1
   23    34    22 1
   24    34    27 1
   25    35    23 1
   26    35    28 1
   27    36    12 1
   28    36    24 1
   29    37    13 1
   30    37    15 1
   31    38    31 1
   32    39    20 1
   33    39    32 1
   34    40     2 1
   35    40    33 1
   36    41     3 1
   37    41    34 1
   38    42     4 1
   39    42    35 1
   40    43    38 1
   41    44     5 1
   42    44    17 1
   43    44    39 1
   44    45    10 1
   45    45    18 1
   46    45    40 1
   47    46    19 1
   48    46    41 1
   49    47    14 1
   50    47    16 1
   51    47    42 1
   52    48    38 1
   53    49    48 1
   54    50    49 1
   55    51    50 1
   56    52    51 1
   57    53    51 1
   58    54    53 1
   59    55    54 1
   60    56    55 1
   61    57    56 1
   62    58    56 1
   63    59    58 1
   64    60    59 1
   65    61    60 1
   66    62    61 1
   67    63    61 1
   68    64    27 1
   69    64    46 1
   70    65     5 1
   71    65    10 1
   72    65    64 1
   73    65    14 1
   74    66    23 1
   75    67    23 1
   76    68    23 1
   77    69    22 1
   78    70    22 1
   79    71    22 1
   80    72    21 1
   81    73    21 1
   82    74    21 1
   83    75    20 1
   84    76    20 1
   85    77    20 1
   86    78    15 1
   87    79    15 1
   88    80    15 1
   89    81     8 1
   90    82     8 1
   91    83     8 1
   92    84     7 1
   93    85     7 1
   94    86     6 1
   95    87     6 1
   96    88     3 1
   97    89     3 1
   98    90     1 1
   99    91     1 1
  100    92    63 1
  101    93    63 1
  102    94    63 1
  103    95    62 1
  104    96    62 1
  105    97    62 1
  106    98    60 1
  107    99    60 1
  108   100    59 1
  109   101    59 1
  110   102    58 1
  111   103    58 1
  112   104    57 1
  113   105    57 1
  114   106    57 1
  115   107    55 1
  116   108    55 1
  117   109    54 1
  118   110    54 1
  119   111    53 1
  120   112    53 1
  121   113    19 1
  122   114    18 1
  123   115    17 1
  124   116     9 1
  125   117     2 1
  126   118    52 1
  127   119    52 1
  128   120    52 1
  129   121    51 1
  130   122    50 1
  131   123    50 1
  132   124    49 1
  133   125    49 1
  134   126    48 1
  135   127    48 1
  136   128    43 1
  137   129    43 1
  138   130    43 1
  139   131    39 1
  140   132    32 1
  141   133    31 1
  142   134    61 1
  143   135    56 1
  144   136    24 1
  145   137    24 1
  146   139   138 1
  147   140   139 1
  148   141   140 1
  149   142   140 1
  150   143   142 1
  151   144   138 1
  152   144   143 1
  153   145   144 1
  154   146   145 1
  155   147   146 1
  156   148   147 1
  157   149   148 1
  158   150   149 1
  159   151   150 1
  160   152   151 1
  161   153   152 1
  162   154   138 1
  163   155   138 1
  164   156   143 1
  165   157   147 1
  166   158   151 1
  167   160   159 1
  168   161   160 1
  169   162   161 1
  170   163   161 1
  171   164   163 1
  172   165   159 1
  173   165   164 1
  174   166   165 1
  175   167   166 1
  176   168   167 1
  177   169   168 1
  178   170   169 1
  179   171   170 1
  180   172   171 1
  181   173   172 1
  182   174   153 1
  183   174   173 1
  184   175   159 1
  185   176   159 1
  186   177   164 1
  187   178   168 1
  188   179   172 1
  189   180   179 1
  190   181   179 1
  191   182   179 1
  192   183   178 1
  193   184   178 1
  194   185   178 1
  195   186   177 1
  196   187   177 1
  197   188   177 1
  198   189   176 1
  199   190   176 1
  200   191   176 1
  201   192   175 1
  202   193   175 1
  203   194   175 1
  204   195   160 1
  205   196   160 1
  206   197   158 1
  207   198   158 1
  208   199   158 1
  209   200   157 1
  210   201   157 1
  211   202   157 1
  212   203   156 1
  213   204   156 1
  214   205   156 1
  215   206   155 1
  216   207   155 1
  217   208   155 1
  218   209   154 1
  219   210   154 1
  220   211   154 1
  221   212   141 1
  222   213   146 1
  223   214   145 1
  224   215   142 1
  225   216   142 1
  226   217   174 1
  227   218   173 1
  228   219   171 1
  229   220   170 1
  230   221   169 1
  231   222   140 1
  232   223   167 1
  233   224   166 1
  234   225   165 1
  235   226   163 1
  236   227   161 1
  237   228   139 1
  238   229   139 1
  239   230   153 1
  240   231   152 1
  241   232   150 1
  242   233   149 1
  243   234   148 1
  244   235   162 1
  245   65    153 1
  246   65    174 1
@<TRIPOS>SUBSTRUCTURE
      1 CLA               1 ****               0 ****  **** 
      2 LUT             138 ****               0 ****  **** 
