@<TRIPOS>MOLECULE
Cpptraj generated mol2 file.
  235   246     2     0     0
SMALL
USER_CHARGES


@<TRIPOS>ATOM
      1 CAA        77.6346   58.4679   34.6123 a2         1 CLA     -0.055900
      2 CAB        77.8869   62.7933   43.4706 c8         1 CLA     -0.148500
      3 CAC        71.0526   58.0871   43.1714 a2         1 CLA     -0.012600
      4 CAD        73.5188   55.8493   35.8669 ck         1 CLA      0.398800
      5 NA         76.6680   59.0540   37.9414 ns         1 CLA     -0.225500
      6 CBA        78.9135   58.4775   33.6594 a2         1 CLA     -0.135000
      7 CBB        76.9099   63.3973   44.2137 c0         1 CLA     -0.395200
      8 CBC        70.9938   56.5437   42.8796 a3         1 CLA     -0.037700
      9 CBD        75.0105   56.3451   35.5972 a1         1 CLA     -0.053900
     10 NB         76.6370   60.6477   40.5603 nm         1 CLA     -0.295700
     11 OBD        72.8317   55.1218   35.1077 o2         1 CLA     -0.494600
     12 CGA        79.4490   57.1141   33.1586 c4         1 CLA      0.827000
     13 CGD        75.8863   55.2146   35.4692 c4         1 CLA      0.655300
     14 ND         73.9556   58.0491   38.6295 nm         1 CLA     -0.291600
     15 CED        76.7984   53.3503   36.7193 a3         1 CLA      0.005400
     16 CHA        75.3871   57.2824   36.7388 cs         1 CLA     -0.123800
     17 CHB        78.4185   60.5284   38.9345 aa         1 CLA     -0.291900
     18 CHC        75.3136   60.9507   42.5481 aa         1 CLA     -0.090400
     19 CHD        72.1989   57.9381   40.2665 aa         1 CLA     -0.052000
     20 CMA        80.1638   58.5579   37.1264 a3         1 CLA     -0.230700
     21 CMB        79.9110   62.4459   40.9194 a3         1 CLA     -0.180800
     22 CMC        73.3476   59.9953   44.7908 a3         1 CLA     -0.134000
     23 CMD        70.6822   56.1715   38.0318 a3         1 CLA     -0.141100
     24 C1         81.0152   55.3745   33.8400 a2         1 CLA      0.023000
     25 C1A        76.5560   58.0775   36.9537 ac         1 CLA     -0.015100
     26 C1B        77.9102   60.9875   40.1387 cr         1 CLA      0.054700
     27 C1C        74.2411   60.0469   42.3431 cn         1 CLA     -0.005600
     28 C1D        72.7040   57.6241   39.0251 ap         1 CLA     -0.047300
     29 O1A        79.4192   56.7036   32.0070 o2         1 CLA     -0.610800
     30 O1D        76.6806   55.0195   34.5443 o2         1 CLA     -0.558200
     31 C2         80.8769   54.4932   35.0447 c8         1 CLA     -0.325100
     32 C2A        77.8438   58.1122   36.1314 a1         1 CLA      0.098600
     33 C2B        78.5487   61.9108   41.1240 cb         1 CLA      0.088500
     34 C2C        73.2076   59.6852   43.3058 cb         1 CLA      0.053700
     35 C2D        72.1194   56.7209   38.0281 cb         1 CLA      0.058900
     36 O2A        80.1314   56.4806   34.1850 o1         1 CLA     -0.437200
     37 O2D        75.7314   54.3340   36.5289 o1         1 CLA     -0.357600
     38 C3         81.9506   54.2559   35.8712 c5         1 CLA      0.031200
     39 C3A        78.7693   59.0800   36.8454 a1         1 CLA      0.166800
     40 C3B        77.6570   62.0807   42.1604 cb         1 CLA      0.035000
     41 C3C        72.2383   58.8198   42.6304 cb         1 CLA     -0.089900
     42 C3D        73.1331   56.5133   37.0836 cb         1 CLA     -0.035900
     43 C4         83.0031   53.2412   35.4401 a3         1 CLA     -0.053300
     44 C4A        77.9456   59.5875   38.0330 ac         1 CLA      0.001800
     45 C4B        76.4466   61.2425   41.7766 cn         1 CLA     -0.020900
     46 C4C        72.8021   58.7009   41.3013 cr         1 CLA     -0.044400
     47 C4D        74.2383   57.3833   37.5105 c6         1 CLA     -0.046000
     48 C5         82.2634   55.0261   37.0765 a2         1 CLA     -0.070400
     49 C6         83.2846   56.1447   36.9426 a2         1 CLA      0.043900
     50 C7         83.5074   56.8501   38.2824 a2         1 CLA     -0.150000
     51 C8         84.1120   58.3604   38.3072 a1         1 CLA      0.064200
     52 C9         85.5587   58.3320   37.7948 a3         1 CLA     -0.259300
     53 C10        84.0409   58.9403   39.7927 a2         1 CLA     -0.071900
     54 C11        82.7123   59.0426   40.5696 a2         1 CLA      0.014500
     55 C12        82.8668   59.7860   41.8424 a2         1 CLA     -0.112100
     56 C13        83.9003   59.1451   42.8909 a1         1 CLA      0.089200
     57 C14        83.2715   57.7631   43.3750 a3         1 CLA     -0.239100
     58 C15        84.2726   60.1385   44.0252 a2         1 CLA     -0.102200
     59 C16        83.0668   60.8186   44.8292 a2         1 CLA      0.023900
     60 C17        83.4916   62.0791   45.5574 a2         1 CLA     -0.105700
     61 C18        83.2628   62.2177   47.0584 a1         1 CLA      0.206800
     62 C19        83.9334   63.5011   47.5621 a3         1 CLA     -0.280100
     63 C20        81.7341   62.2738   47.2805 a3         1 CLA     -0.280100
     64 NC         73.9667   59.3953   41.1592 nx         1 CLA     -0.309200
     65 MG         75.2539   59.3805   39.5062 mg         1 CLA      0.895000
     66 HMD3       70.0025   56.9813   37.7987 dc         1 CLA      0.064300
     67 HMD2       70.6666   55.4084   37.2881 dc         1 CLA      0.064300
     68 HMD1       70.4799   55.6345   38.9915 dc         1 CLA      0.064300
     69 HMC3       74.3730   60.1403   45.2356 dc         1 CLA      0.052100
     70 HMC2       72.5668   60.7371   45.1639 dc         1 CLA      0.052100
     71 HMC1       73.1161   59.0275   45.2892 dc         1 CLA      0.052100
     72 HMB3       80.0363   63.1698   41.6611 dc         1 CLA      0.063600
     73 HMB2       80.6503   61.6737   41.0995 dc         1 CLA      0.063600
     74 HMB1       80.0152   62.9372   39.9064 dc         1 CLA      0.063600
     75 HMA3       80.1625   57.5386   37.5512 dc         1 CLA      0.058300
     76 HMA2       80.6312   58.5741   36.1694 dc         1 CLA      0.058300
     77 HMA1       80.6789   59.1850   37.8219 dc         1 CLA      0.058300
     78 HED3       76.6378   52.6650   37.6239 dc         1 CLA      0.079300
     79 HED2       76.9533   52.7414   35.8087 dc         1 CLA      0.079300
     80 HED1       77.7104   53.9546   36.8729 dc         1 CLA      0.079300
     81 HBC3       69.9093   56.3360   43.2347 dc         1 CLA      0.016300
     82 HBC2       71.1493   56.2128   41.8706 dc         1 CLA      0.016300
     83 HBC1       71.7232   56.0745   43.5344 dc         1 CLA      0.016300
     84 HBB2       77.1990   63.9085   45.1278 da         1 CLA      0.183000
     85 HBB1       75.8932   63.4227   43.8245 da         1 CLA      0.183000
     86 HBA2       78.5244   58.8422   32.7487 dc         1 CLA      0.029400
     87 HBA1       79.7575   59.1026   34.0157 dc         1 CLA      0.029400
     88 HAC2       70.9926   58.2581   44.2887 dc         1 CLA      0.029300
     89 HAC1       70.1621   58.5409   42.7734 dc         1 CLA      0.029300
     90 HAA2       76.8027   57.9873   34.1699 dc         1 CLA      0.028700
     91 HAA1       77.4933   59.5683   34.4658 dc         1 CLA      0.028700
     92 H203       81.6361   62.3262   48.3628 dc         1 CLA      0.065600
     93 H202       81.2416   63.1491   46.8180 dc         1 CLA      0.065600
     94 H201       81.1318   61.4241   46.9481 dc         1 CLA      0.065600
     95 H193       83.6490   63.6203   48.5901 dc         1 CLA      0.065600
     96 H192       85.0469   63.4757   47.4843 dc         1 CLA      0.065600
     97 H191       83.5717   64.3442   47.0219 dc         1 CLA      0.065600
     98 H172       84.6060   62.1148   45.3702 dc         1 CLA      0.027600
     99 H171       83.0069   62.9866   45.1063 dc         1 CLA      0.027600
    100 H162       82.2995   61.2504   44.1457 dc         1 CLA      0.002900
    101 H161       82.4296   60.1186   45.3936 dc         1 CLA      0.002900
    102 H152       84.8592   59.5776   44.6936 dc         1 CLA      0.029100
    103 H151       85.0300   60.7769   43.5782 dc         1 CLA      0.029100
    104 H143       82.6046   58.0572   44.2325 dc         1 CLA      0.063600
    105 H142       82.6289   57.2005   42.6391 dc         1 CLA      0.063600
    106 H141       84.0957   57.2018   43.6840 dc         1 CLA      0.063600
    107 H122       83.2263   60.7182   41.6144 dc         1 CLA      0.032500
    108 H121       81.8932   59.9158   42.3707 dc         1 CLA      0.032500
    109 H112       81.9966   59.5869   40.0298 dc         1 CLA      0.006600
    110 H111       82.2575   58.0583   40.7381 dc         1 CLA      0.006600
    111 H102       84.7899   58.3557   40.3221 dc         1 CLA      0.024100
    112 H101       84.3563   59.9767   39.6917 dc         1 CLA      0.024100
    113 HHD        71.1851   57.5500   40.4821 da         1 CLA      0.174300
    114 HHC        75.4381   61.4285   43.5147 da         1 CLA      0.136800
    115 HHB        79.4623   60.7415   38.6745 da         1 CLA      0.138300
    116 HBD        75.0255   56.8383   34.6046 dc         1 CLA      0.107700
    117 HAB        78.9424   62.9307   43.8027 da         1 CLA      0.155200
    118 H93        85.9166   59.3745   38.0480 dc         1 CLA      0.069500
    119 H92        86.1417   57.5686   38.2978 dc         1 CLA      0.069500
    120 H91        85.5889   58.0227   36.7066 dc         1 CLA      0.069500
    121 H8         83.5599   59.0497   37.5528 dc         1 CLA      0.029300
    122 H72        82.5197   57.0620   38.6739 dc         1 CLA      0.044400
    123 H71        83.9052   56.1740   38.9859 dc         1 CLA      0.044400
    124 H62        84.2048   55.5811   36.6081 dc         1 CLA      0.015600
    125 H61        82.9511   56.9359   36.2884 dc         1 CLA      0.015600
    126 H52        81.2905   55.2313   37.4804 dc         1 CLA      0.033200
    127 H51        82.6702   54.2761   37.7702 dc         1 CLA      0.033200
    128 H43        83.3722   53.5998   34.4711 dc         1 CLA      0.037000
    129 H42        83.8809   53.1247   36.0924 dc         1 CLA      0.037000
    130 H41        82.4670   52.2842   35.2797 dc         1 CLA      0.037000
    131 H3A        78.8508   59.9943   36.2499 dc         1 CLA      0.041100
    132 H2A        78.1641   57.0870   36.2908 dc         1 CLA      0.083100
    133 H2         79.8965   53.9369   35.1218 da         1 CLA      0.180900
    134 H18        83.6271   61.3277   47.5620 dc         1 CLA     -0.003900
    135 H13        84.7994   58.8155   42.4168 dc         1 CLA      0.019700
    136 H12        80.6365   54.8897   32.9443 dc         1 CLA      0.120400
    137 H11        82.0039   55.6923   33.6003 dc         1 CLA      0.120400
    138 C1         66.9500   62.4365   50.3201 Z1         2 LUT      0.509236
    139 C2         66.9323   63.7146   51.1541 Z2         2 LUT     -0.434695
    140 C3         65.6787   64.5232   51.0907 Z3         2 LUT      0.437453
    141 O3         65.8851   65.8655   51.5703 S1         2 LUT     -0.547129
    142 C4         65.1642   64.5484   49.6605 Z4         2 LUT     -0.468603
    143 C5         65.8610   63.8236   48.5911 Z5         2 LUT      0.279246
    144 C6         66.7156   62.7993   48.8274 Z6         2 LUT     -0.305473
    145 C7         67.6071   62.1363   47.9300 Z7         2 LUT      0.069402
    146 C8         68.6402   62.6626   47.1867 Z8         2 LUT     -0.191631
    147 C9         69.3726   62.1324   45.9544 Z9         2 LUT      0.196698
    148 C10        70.1754   63.0446   45.2412 Y1         2 LUT     -0.208611
    149 C11        70.7702   62.8842   43.9452 Y2         2 LUT      0.030784
    150 C12        71.7673   63.7227   43.5427 Y3         2 LUT     -0.220316
    151 C13        72.6004   63.6150   42.3203 Y4         2 LUT      0.215937
    152 C14        73.7285   64.4204   42.2355 Y5         2 LUT     -0.185793
    153 C15        74.7264   64.4221   41.1575 Y6         2 LUT     -0.057835
    154 C16        65.8861   61.5406   50.9532 Y7         2 LUT     -0.405615
    155 C17        68.3169   61.7085   50.5450 Y7         2 LUT     -0.405615
    156 C18        65.7023   64.5345   47.2716 Y9         2 LUT     -0.369639
    157 C19        69.0097   60.6927   45.5535 W1         2 LUT     -0.333362
    158 C20        72.2061   62.6364   41.2365 W2         2 LUT     -0.323439
    159 C21        86.6157   65.7074   35.7231 Z1         2 LUT      0.406104
    160 C22        87.3599   65.1468   34.4543 Z2         2 LUT     -0.404965
    161 C23        87.5009   66.0482   33.2426 Z3         2 LUT      0.391255
    162 O23        88.0792   65.1797   32.2422 S1         2 LUT     -0.528210
    163 C24        86.1916   66.7264   32.9672 W6         2 LUT     -0.258361
    164 C25        85.0709   66.7118   33.7425 Z5         2 LUT      0.133546
    165 C26        85.1318   66.0329   35.1455 W8         2 LUT     -0.147008
    166 C27        84.3071   66.7075   36.1491 Z7         2 LUT      0.023843
    167 C28        83.0474   66.5263   36.5198 Z8         2 LUT     -0.216987
    168 C29        82.3861   66.9505   37.8085 Z9         2 LUT      0.206524
    169 C30        81.1588   66.3858   38.1724 Y1         2 LUT     -0.215556
    170 C31        80.3492   66.4885   39.3615 Y2         2 LUT      0.025142
    171 C32        79.1618   65.8722   39.4714 Y3         2 LUT     -0.212209
    172 C33        78.3001   65.7954   40.6272 Y4         2 LUT      0.240937
    173 C34        77.1275   65.0557   40.4637 Y5         2 LUT     -0.218862
    174 C35        75.9627   65.0492   41.2904 Y6         2 LUT     -0.023547
    175 C36        87.5113   66.8718   36.2363 Y7         2 LUT     -0.393485
    176 C37        86.6475   64.6035   36.7608 Y7         2 LUT     -0.393485
    177 C38        83.8007   67.4726   33.3067 Y9         2 LUT     -0.387526
    178 C39        83.2220   67.8814   38.6143 W1         2 LUT     -0.322618
    179 C40        78.6754   66.4364   41.9436 W2         2 LUT     -0.358472
    180 H403       79.5049   65.8814   42.4591 R7         2 LUT      0.097720
    181 H402       78.9873   67.4051   41.7387 R7         2 LUT      0.097720
    182 H401       77.8559   66.4548   42.6726 R7         2 LUT      0.097720
    183 H393       82.5697   68.1900   39.3873 R4         2 LUT      0.082505
    184 H392       84.0698   67.2772   39.0242 R4         2 LUT      0.082505
    185 H391       83.5664   68.7572   37.9894 R4         2 LUT      0.082505
    186 H383       84.1412   68.4522   32.9074 R1         2 LUT      0.104030
    187 H382       83.3001   66.8562   32.5696 R1         2 LUT      0.104030
    188 H381       83.1934   67.7153   34.1444 R1         2 LUT      0.104030
    189 H373       86.1231   65.0215   37.6176 T4         2 LUT      0.089537
    190 H372       86.1300   63.7288   36.4169 T4         2 LUT      0.089537
    191 H371       87.7056   64.3047   36.9760 T4         2 LUT      0.089537
    192 H363       87.4733   67.6857   35.5169 T4         2 LUT      0.089537
    193 H362       87.2643   67.2780   37.2759 T4         2 LUT      0.089537
    194 H361       88.5576   66.5492   36.2907 T4         2 LUT      0.089537
    195 H222       88.3695   64.8298   34.7028 U2         2 LUT      0.127376
    196 H221       86.9271   64.1970   34.0540 U2         2 LUT      0.127376
    197 H203       71.7337   61.6874   41.6428 R7         2 LUT      0.087068
    198 H202       71.3982   63.0024   40.5857 R7         2 LUT      0.087068
    199 H201       73.0390   62.2698   40.6024 R7         2 LUT      0.087068
    200 H193       69.9147   60.1520   45.1384 R4         2 LUT      0.089716
    201 H192       68.6215   60.1011   46.3342 R4         2 LUT      0.089716
    202 H191       68.2177   60.7691   44.7624 R4         2 LUT      0.089716
    203 H183       66.4329   65.4128   47.2766 R1         2 LUT      0.094572
    204 H182       66.1015   63.8226   46.5412 R1         2 LUT      0.094572
    205 H181       64.7225   64.8043   46.9648 R1         2 LUT      0.094572
    206 H173       68.6157   60.8635   49.8668 T4         2 LUT      0.093752
    207 H172       69.1407   62.4382   50.3733 T4         2 LUT      0.093752
    208 H171       68.4931   61.3058   51.5337 T4         2 LUT      0.093752
    209 H163       66.1274   60.5126   50.6840 T4         2 LUT      0.093752
    210 H162       65.9098   61.5302   52.0298 T4         2 LUT      0.093752
    211 H161       64.8954   61.6521   50.5035 T4         2 LUT      0.093752
    212 HO3        65.1852   66.0531   52.1615 Q1         2 LUT      0.300121
    213 H8         68.9039   63.6780   47.2717 U7         2 LUT      0.080784
    214 H7         67.3334   61.1153   47.7517 U6         2 LUT      0.042190
    215 H42        64.0750   64.3377   49.6355 U5         2 LUT      0.145166
    216 H41        65.0083   65.5942   49.3646 U5         2 LUT      0.145166
    217 H35        76.0186   65.6266   42.1653 T3         2 LUT      0.077919
    218 H34        76.9349   64.4435   39.5913 T2         2 LUT      0.073626
    219 H32        78.8809   65.2670   38.6256 T1         2 LUT      0.092510
    220 H31        80.6680   67.0827   40.2378 U9         2 LUT      0.070048
    221 H30        80.7360   65.6811   37.4175 U8         2 LUT      0.085442
    222 H3         65.0213   63.8275   51.6741 U3         2 LUT     -0.031596
    223 H28        82.4434   65.9301   35.8965 U7         2 LUT      0.084728
    224 H27        84.9350   67.1378   36.9405 U6         2 LUT      0.087291
    225 H26        84.6829   65.0845   35.0565 Q6         2 LUT      0.075325
    226 H24        86.2309   67.3403   32.0852 Q5         2 LUT      0.094482
    227 H23        88.2095   66.9464   33.5011 U3         2 LUT     -0.024869
    228 H22        67.1630   63.4440   52.1716 U2         2 LUT      0.127376
    229 H21        67.6756   64.3600   50.8104 U2         2 LUT      0.127376
    230 H15        74.5070   63.8120   40.3650 T3         2 LUT      0.093200
    231 H14        73.9507   65.0238   43.1540 T2         2 LUT      0.068865
    232 H12        72.0015   64.5293   44.1834 T1         2 LUT      0.095507
    233 H11        70.5821   62.0216   43.3839 U9         2 LUT      0.068930
    234 H10        70.3815   63.9491   45.7735 U8         2 LUT      0.083911
    235 H1         87.5135   64.8242   31.5286 Q1         2 LUT      0.297311
@<TRIPOS>BOND
    1     6     1 1
    2     7     2 1
    3     8     3 1
    4     9     4 1
    5    11     4 1
    6    12     6 1
    7    13     9 1
    8    16     9 1
    9    25     5 1
   10    25    16 1
   11    26    10 1
   12    26    17 1
   13    27    18 1
   14    28    14 1
   15    28    19 1
   16    29    12 1
   17    30    13 1
   18    31    24 1
   19    32     1 1
   20    32    25 1
   21    33    21 1
   22    33    26 1
   23    34    22 1
   24    34    27 1
   25    35    23 1
   26    35    28 1
   27    36    12 1
   28    36    24 1
   29    37    13 1
   30    37    15 1
   31    38    31 1
   32    39    20 1
   33    39    32 1
   34    40     2 1
   35    40    33 1
   36    41     3 1
   37    41    34 1
   38    42     4 1
   39    42    35 1
   40    43    38 1
   41    44     5 1
   42    44    17 1
   43    44    39 1
   44    45    10 1
   45    45    18 1
   46    45    40 1
   47    46    19 1
   48    46    41 1
   49    47    14 1
   50    47    16 1
   51    47    42 1
   52    48    38 1
   53    49    48 1
   54    50    49 1
   55    51    50 1
   56    52    51 1
   57    53    51 1
   58    54    53 1
   59    55    54 1
   60    56    55 1
   61    57    56 1
   62    58    56 1
   63    59    58 1
   64    60    59 1
   65    61    60 1
   66    62    61 1
   67    63    61 1
   68    64    27 1
   69    64    46 1
   70    65     5 1
   71    65    10 1
   72    65    64 1
   73    65    14 1
   74    66    23 1
   75    67    23 1
   76    68    23 1
   77    69    22 1
   78    70    22 1
   79    71    22 1
   80    72    21 1
   81    73    21 1
   82    74    21 1
   83    75    20 1
   84    76    20 1
   85    77    20 1
   86    78    15 1
   87    79    15 1
   88    80    15 1
   89    81     8 1
   90    82     8 1
   91    83     8 1
   92    84     7 1
   93    85     7 1
   94    86     6 1
   95    87     6 1
   96    88     3 1
   97    89     3 1
   98    90     1 1
   99    91     1 1
  100    92    63 1
  101    93    63 1
  102    94    63 1
  103    95    62 1
  104    96    62 1
  105    97    62 1
  106    98    60 1
  107    99    60 1
  108   100    59 1
  109   101    59 1
  110   102    58 1
  111   103    58 1
  112   104    57 1
  113   105    57 1
  114   106    57 1
  115   107    55 1
  116   108    55 1
  117   109    54 1
  118   110    54 1
  119   111    53 1
  120   112    53 1
  121   113    19 1
  122   114    18 1
  123   115    17 1
  124   116     9 1
  125   117     2 1
  126   118    52 1
  127   119    52 1
  128   120    52 1
  129   121    51 1
  130   122    50 1
  131   123    50 1
  132   124    49 1
  133   125    49 1
  134   126    48 1
  135   127    48 1
  136   128    43 1
  137   129    43 1
  138   130    43 1
  139   131    39 1
  140   132    32 1
  141   133    31 1
  142   134    61 1
  143   135    56 1
  144   136    24 1
  145   137    24 1
  146   139   138 1
  147   140   139 1
  148   141   140 1
  149   142   140 1
  150   143   142 1
  151   144   138 1
  152   144   143 1
  153   145   144 1
  154   146   145 1
  155   147   146 1
  156   148   147 1
  157   149   148 1
  158   150   149 1
  159   151   150 1
  160   152   151 1
  161   153   152 1
  162   154   138 1
  163   155   138 1
  164   156   143 1
  165   157   147 1
  166   158   151 1
  167   160   159 1
  168   161   160 1
  169   162   161 1
  170   163   161 1
  171   164   163 1
  172   165   159 1
  173   165   164 1
  174   166   165 1
  175   167   166 1
  176   168   167 1
  177   169   168 1
  178   170   169 1
  179   171   170 1
  180   172   171 1
  181   173   172 1
  182   174   153 1
  183   174   173 1
  184   175   159 1
  185   176   159 1
  186   177   164 1
  187   178   168 1
  188   179   172 1
  189   180   179 1
  190   181   179 1
  191   182   179 1
  192   183   178 1
  193   184   178 1
  194   185   178 1
  195   186   177 1
  196   187   177 1
  197   188   177 1
  198   189   176 1
  199   190   176 1
  200   191   176 1
  201   192   175 1
  202   193   175 1
  203   194   175 1
  204   195   160 1
  205   196   160 1
  206   197   158 1
  207   198   158 1
  208   199   158 1
  209   200   157 1
  210   201   157 1
  211   202   157 1
  212   203   156 1
  213   204   156 1
  214   205   156 1
  215   206   155 1
  216   207   155 1
  217   208   155 1
  218   209   154 1
  219   210   154 1
  220   211   154 1
  221   212   141 1
  222   213   146 1
  223   214   145 1
  224   215   142 1
  225   216   142 1
  226   217   174 1
  227   218   173 1
  228   219   171 1
  229   220   170 1
  230   221   169 1
  231   222   140 1
  232   223   167 1
  233   224   166 1
  234   225   165 1
  235   226   163 1
  236   227   161 1
  237   228   139 1
  238   229   139 1
  239   230   153 1
  240   231   152 1
  241   232   150 1
  242   233   149 1
  243   234   148 1
  244   235   162 1
  245   65    153 1
  246   65    174 1
@<TRIPOS>SUBSTRUCTURE
      1 CLA               1 ****               0 ****  **** 
      2 LUT             138 ****               0 ****  **** 
