@<TRIPOS>MOLECULE
Cpptraj generated mol2 file.
  235   246     2     0     0
SMALL
USER_CHARGES


@<TRIPOS>ATOM
      1 CAA        78.8741   58.5921   33.9531 a2         1 CLA     -0.055900
      2 CAB        78.6807   61.6956   43.2410 c8         1 CLA     -0.148500
      3 CAC        71.6799   58.2726   42.0932 a2         1 CLA     -0.012600
      4 CAD        74.5264   56.1571   34.7939 ck         1 CLA      0.398800
      5 NA         77.6938   58.8774   37.2548 ns         1 CLA     -0.225500
      6 CBA        80.1500   58.4935   33.0847 a2         1 CLA     -0.135000
      7 CBB        78.1679   61.1273   44.3388 c0         1 CLA     -0.395200
      8 CBC        71.7702   56.7276   42.2173 a3         1 CLA     -0.037700
      9 CBD        76.0257   56.6591   34.5217 a1         1 CLA     -0.053900
     10 NB         77.5604   60.1458   39.9136 nm         1 CLA     -0.295700
     11 OBD        73.8537   55.4361   33.9937 o2         1 CLA     -0.494600
     12 CGA        80.8453   57.1377   32.7763 c4         1 CLA      0.827000
     13 CGD        76.9120   55.4725   34.2427 c4         1 CLA      0.655300
     14 ND         74.9167   58.1449   37.6725 nm         1 CLA     -0.291600
     15 CED        77.4330   53.3058   35.1497 a3         1 CLA      0.005400
     16 CHA        76.3414   57.5543   35.7916 cs         1 CLA     -0.123800
     17 CHB        79.5502   60.0249   38.3969 aa         1 CLA     -0.291900
     18 CHC        76.1446   60.5802   41.8542 aa         1 CLA     -0.090400
     19 CHD        73.0081   58.0281   39.2515 aa         1 CLA     -0.052000
     20 CMA        81.0550   57.6883   36.9610 a3         1 CLA     -0.230700
     21 CMB        80.8712   61.6407   40.7826 a3         1 CLA     -0.180800
     22 CMC        73.8533   59.9234   43.7681 a3         1 CLA     -0.134000
     23 CMD        71.8045   56.2133   37.0452 a3         1 CLA     -0.141100
     24 C1         82.2496   55.4487   33.6377 a2         1 CLA      0.023000
     25 C1A        77.5694   58.0824   36.1056 ac         1 CLA     -0.015100
     26 C1B        78.8997   60.3960   39.6075 cr         1 CLA      0.054700
     27 C1C        74.9754   59.9225   41.4935 cn         1 CLA     -0.005600
     28 C1D        73.6670   57.6649   38.0348 ap         1 CLA     -0.047300
     29 O1A        80.5971   56.4206   31.8385 o2         1 CLA     -0.610800
     30 O1D        77.5344   55.3017   33.1806 o2         1 CLA     -0.558200
     31 C2         82.7695   54.9842   34.9881 c8         1 CLA     -0.325100
     32 C2A        78.9465   57.9360   35.3330 a1         1 CLA      0.098600
     33 C2B        79.5025   61.1476   40.7277 cb         1 CLA      0.088500
     34 C2C        73.8533   59.6607   42.3782 cb         1 CLA      0.053700
     35 C2D        73.1681   56.8432   36.9955 cb         1 CLA      0.058900
     36 O2A        81.6665   56.7380   33.8116 o1         1 CLA     -0.437200
     37 O2D        76.8348   54.6214   35.3182 o1         1 CLA     -0.357600
     38 C3         82.7052   53.7391   35.5015 c5         1 CLA      0.031200
     39 C3A        79.9442   58.5904   36.3283 a1         1 CLA      0.166800
     40 C3B        78.5751   61.1525   41.8260 cb         1 CLA      0.035000
     41 C3C        72.9328   58.9360   41.6636 cb         1 CLA     -0.089900
     42 C3D        74.1477   56.7587   36.0848 cb         1 CLA     -0.035900
     43 C4         81.4670   53.3326   36.2493 a3         1 CLA     -0.053300
     44 C4A        79.0212   59.2729   37.3416 ac         1 CLA      0.001800
     45 C4B        77.3540   60.6268   41.1625 cn         1 CLA     -0.020900
     46 C4C        73.4756   58.7747   40.3330 cr         1 CLA     -0.044400
     47 C4D        75.2057   57.5687   36.5356 c6         1 CLA     -0.046000
     48 C5         83.9194   52.8485   35.5304 a2         1 CLA     -0.070400
     49 C6         85.0960   53.5470   36.1439 a2         1 CLA      0.043900
     50 C7         84.9392   53.7428   37.6643 a2         1 CLA     -0.150000
     51 C8         85.7341   55.0357   38.0849 a1         1 CLA      0.064200
     52 C9         87.2050   54.7423   38.0654 a3         1 CLA     -0.259300
     53 C10        85.4435   55.4545   39.5147 a2         1 CLA     -0.071900
     54 C11        83.9235   55.7276   39.9013 a2         1 CLA      0.014500
     55 C12        83.7043   56.3378   41.3073 a2         1 CLA     -0.112100
     56 C13        82.2264   56.8498   41.7441 a1         1 CLA      0.089200
     57 C14        81.5460   57.7140   40.6260 a3         1 CLA     -0.239100
     58 C15        82.0766   57.3944   43.0768 a2         1 CLA     -0.102200
     59 C16        83.0867   58.4095   43.4520 a2         1 CLA      0.023900
     60 C17        82.7717   59.0062   44.8864 a2         1 CLA     -0.105700
     61 C18        83.3328   60.4526   45.1714 a1         1 CLA      0.206800
     62 C19        82.4370   61.5509   44.5703 a3         1 CLA     -0.280100
     63 C20        83.5566   60.6048   46.6371 a3         1 CLA     -0.280100
     64 NC         74.7299   59.3057   40.2751 nx         1 CLA     -0.309200
     65 MG         76.1348   59.3388   38.6972 mg         1 CLA      0.895000
     66 HMD3       71.7918   56.0150   38.1056 dc         1 CLA      0.064300
     67 HMD2       71.1129   56.9481   36.6655 dc         1 CLA      0.064300
     68 HMD1       71.8815   55.3117   36.5220 dc         1 CLA      0.064300
     69 HMC3       72.8494   60.1362   44.0869 dc         1 CLA      0.052100
     70 HMC2       74.0851   58.9432   44.1811 dc         1 CLA      0.052100
     71 HMC1       74.5207   60.7017   44.0802 dc         1 CLA      0.052100
     72 HMB3       80.8654   62.5175   41.3775 dc         1 CLA      0.063600
     73 HMB2       81.4540   60.8411   41.1710 dc         1 CLA      0.063600
     74 HMB1       81.2819   62.0032   39.8179 dc         1 CLA      0.063600
     75 HMA3       80.6671   56.8463   37.4892 dc         1 CLA      0.058300
     76 HMA2       81.7904   57.3986   36.2421 dc         1 CLA      0.058300
     77 HMA1       81.4862   58.4048   37.6622 dc         1 CLA      0.058300
     78 HED3       78.2063   53.1706   34.4220 dc         1 CLA      0.079300
     79 HED2       77.6763   52.9249   36.1384 dc         1 CLA      0.079300
     80 HED1       76.5671   52.7318   34.7621 dc         1 CLA      0.079300
     81 HBC3       70.8492   56.4422   42.7648 dc         1 CLA      0.016300
     82 HBC2       71.9409   56.1697   41.3414 dc         1 CLA      0.016300
     83 HBC1       72.4717   56.5128   42.9958 dc         1 CLA      0.016300
     84 HBB2       78.2768   61.6060   45.3039 da         1 CLA      0.183000
     85 HBB1       77.6609   60.1680   44.3393 da         1 CLA      0.183000
     86 HBA2       79.9528   58.9897   32.0611 dc         1 CLA      0.029400
     87 HBA1       80.8054   59.0425   33.6838 dc         1 CLA      0.029400
     88 HAC2       71.3827   58.7072   42.9887 dc         1 CLA      0.029300
     89 HAC1       70.8573   58.5421   41.3994 dc         1 CLA      0.029300
     90 HAA2       78.0941   58.1308   33.3193 dc         1 CLA      0.028700
     91 HAA1       78.6857   59.6048   34.1985 dc         1 CLA      0.028700
     92 H203       84.5574   60.2158   46.8884 dc         1 CLA      0.065600
     93 H202       83.5628   61.6627   47.0132 dc         1 CLA      0.065600
     94 H201       82.9076   60.0129   47.3004 dc         1 CLA      0.065600
     95 H193       82.9011   62.5544   44.5134 dc         1 CLA      0.065600
     96 H192       82.1139   61.3249   43.5865 dc         1 CLA      0.065600
     97 H191       81.4553   61.6802   45.1809 dc         1 CLA      0.065600
     98 H172       81.6507   58.9609   45.0077 dc         1 CLA      0.027600
     99 H171       83.2648   58.3330   45.6514 dc         1 CLA      0.027600
    100 H162       84.1579   58.0331   43.5128 dc         1 CLA      0.002900
    101 H161       83.0705   59.2222   42.6390 dc         1 CLA      0.002900
    102 H152       81.0371   57.6567   43.3346 dc         1 CLA      0.029100
    103 H151       82.3925   56.5344   43.7324 dc         1 CLA      0.029100
    104 H143       82.2248   58.5576   40.5475 dc         1 CLA      0.063600
    105 H142       81.4330   57.0939   39.6911 dc         1 CLA      0.063600
    106 H141       80.5887   58.0312   41.0648 dc         1 CLA      0.063600
    107 H122       84.0764   55.5289   42.0107 dc         1 CLA      0.032500
    108 H121       84.4210   57.1923   41.4147 dc         1 CLA      0.032500
    109 H112       83.5325   56.4361   39.1922 dc         1 CLA      0.006600
    110 H111       83.2817   54.8709   39.7576 dc         1 CLA      0.006600
    111 H102       85.6495   54.5445   40.0989 dc         1 CLA      0.024100
    112 H101       86.0017   56.3291   39.8452 dc         1 CLA      0.024100
    113 HHD        71.9739   57.6594   39.3053 da         1 CLA      0.174300
    114 HHC        76.0925   61.1572   42.7865 da         1 CLA      0.136800
    115 HHB        80.6528   60.2923   38.3067 da         1 CLA      0.138300
    116 HBD        75.9953   57.2450   33.6623 dc         1 CLA      0.107700
    117 HAB        79.2085   62.6140   43.2543 da         1 CLA      0.155200
    118 H93        87.4862   54.3510   36.9961 dc         1 CLA      0.069500
    119 H92        87.6730   55.6699   38.2220 dc         1 CLA      0.069500
    120 H91        87.5605   54.0572   38.8566 dc         1 CLA      0.069500
    121 H8         85.3777   55.7145   37.2917 dc         1 CLA      0.029300
    122 H72        83.8925   53.8166   38.0608 dc         1 CLA      0.044400
    123 H71        85.3053   52.8338   38.2145 dc         1 CLA      0.044400
    124 H62        85.9169   52.9010   35.9365 dc         1 CLA      0.015600
    125 H61        85.0887   54.5306   35.6767 dc         1 CLA      0.015600
    126 H52        83.6260   51.9363   36.0421 dc         1 CLA      0.033200
    127 H51        84.2242   52.6131   34.4953 dc         1 CLA      0.033200
    128 H43        81.1005   52.4057   35.9120 dc         1 CLA      0.037000
    129 H42        81.6225   53.3295   37.3357 dc         1 CLA      0.037000
    130 H41        80.8157   54.0833   35.9012 dc         1 CLA      0.037000
    131 H3A        80.5494   59.3306   35.8193 dc         1 CLA      0.041100
    132 H2A        79.1651   56.8808   35.2474 dc         1 CLA      0.083100
    133 H2         83.1794   55.7022   35.6642 da         1 CLA      0.180900
    134 H18        84.3101   60.5401   44.7027 dc         1 CLA     -0.003900
    135 H13        81.5999   55.9148   41.6435 dc         1 CLA      0.019700
    136 H12        81.5949   54.6458   33.2088 dc         1 CLA      0.120400
    137 H11        83.0701   55.5819   33.0310 dc         1 CLA      0.120400
    138 C1         67.8864   60.7219   49.5706 Z1         2 LUT      0.509236
    139 C2         66.5072   60.6850   50.1616 Z2         2 LUT     -0.434695
    140 C3         65.8335   61.9699   50.6108 Z3         2 LUT      0.437453
    141 O3         65.7874   62.3465   52.0661 S1         2 LUT     -0.547129
    142 C4         66.4079   63.1549   49.7668 Z4         2 LUT     -0.468603
    143 C5         67.1268   62.7952   48.5002 Z5         2 LUT      0.279246
    144 C6         67.9231   61.7211   48.4114 Z6         2 LUT     -0.305473
    145 C7         68.5955   61.2984   47.1666 Z7         2 LUT      0.069402
    146 C8         69.2456   62.1262   46.3509 Z8         2 LUT     -0.191631
    147 C9         69.8827   61.7540   45.0166 Z9         2 LUT      0.196698
    148 C10        70.8437   62.5206   44.4363 Y1         2 LUT     -0.208611
    149 C11        71.5054   62.4049   43.1093 Y2         2 LUT      0.030784
    150 C12        72.5818   63.2273   42.9067 Y3         2 LUT     -0.220316
    151 C13        73.4453   63.2645   41.7592 Y4         2 LUT      0.215937
    152 C14        74.6452   63.9299   41.8783 Y5         2 LUT     -0.185793
    153 C15        75.7563   64.0081   40.9597 Y6         2 LUT     -0.057835
    154 C16        68.2177   59.2681   49.1673 Y7         2 LUT     -0.405615
    155 C17        68.8392   61.1829   50.6631 Y7         2 LUT     -0.405615
    156 C18        66.5755   63.5438   47.3289 Y9         2 LUT     -0.369639
    157 C19        69.4364   60.5099   44.3743 W1         2 LUT     -0.333362
    158 C20        72.8414   62.6804   40.4586 W2         2 LUT     -0.323439
    159 C21        87.5793   65.1962   34.8986 Z1         2 LUT      0.406104
    160 C22        88.0712   64.7212   33.5136 Z2         2 LUT     -0.404965
    161 C23        88.1746   65.7503   32.4222 Z3         2 LUT      0.391255
    162 O23        88.5814   64.9922   31.2906 S1         2 LUT     -0.528210
    163 C24        86.8380   66.3930   32.3898 W6         2 LUT     -0.258361
    164 C25        85.8942   66.4149   33.3672 Z5         2 LUT      0.133546
    165 C26        86.0788   65.6481   34.6782 W8         2 LUT     -0.147008
    166 C27        85.4185   66.1308   35.9235 Z7         2 LUT      0.023843
    167 C28        84.2810   65.6455   36.4331 Z8         2 LUT     -0.216987
    168 C29        83.5791   66.0638   37.6670 Z9         2 LUT      0.206524
    169 C30        82.3321   65.4685   37.8631 Y1         2 LUT     -0.215556
    170 C31        81.4371   65.6973   38.9678 Y2         2 LUT      0.025142
    171 C32        80.1677   65.2046   39.1478 Y3         2 LUT     -0.212209
    172 C33        79.2389   65.3653   40.2844 Y4         2 LUT      0.240937
    173 C34        78.0325   64.7711   40.2325 Y5         2 LUT     -0.218862
    174 C35        76.9567   64.6740   41.2123 Y6         2 LUT     -0.023547
    175 C36        88.4826   66.3096   35.4375 Y7         2 LUT     -0.393485
    176 C37        87.7704   64.0968   35.9321 Y7         2 LUT     -0.393485
    177 C38        84.6412   67.3463   33.2813 Y9         2 LUT     -0.387526
    178 C39        84.0725   67.0971   38.6969 W1         2 LUT     -0.322618
    179 C40        79.6548   66.2101   41.4529 W2         2 LUT     -0.358472
    180 H403       79.0492   65.9713   42.3370 R7         2 LUT      0.097720
    181 H402       80.6274   65.7693   41.7833 R7         2 LUT      0.097720
    182 H401       79.8167   67.3413   41.2803 R7         2 LUT      0.097720
    183 H393       83.9354   66.6952   39.7234 R4         2 LUT      0.082505
    184 H392       85.1807   67.3231   38.6182 R4         2 LUT      0.082505
    185 H391       83.5002   68.0303   38.5505 R4         2 LUT      0.082505
    186 H383       83.7423   66.7925   33.5258 R1         2 LUT      0.104030
    187 H382       84.5968   68.1034   34.0982 R1         2 LUT      0.104030
    188 H381       84.4236   67.7281   32.2218 R1         2 LUT      0.104030
    189 H373       87.2502   64.4146   36.8130 T4         2 LUT      0.089537
    190 H372       87.3521   63.1147   35.6168 T4         2 LUT      0.089537
    191 H371       88.7903   63.9625   36.2538 T4         2 LUT      0.089537
    192 H363       88.2483   66.6003   36.4757 T4         2 LUT      0.089537
    193 H362       89.4791   65.9794   35.5928 T4         2 LUT      0.089537
    194 H361       88.5084   67.1845   34.7947 T4         2 LUT      0.089537
    195 H222       89.0732   64.1516   33.6160 U2         2 LUT      0.127376
    196 H221       87.3838   63.9804   33.2011 U2         2 LUT      0.127376
    197 H203       73.4318   62.9709   39.6250 R7         2 LUT      0.087068
    198 H202       72.8833   61.6157   40.4266 R7         2 LUT      0.087068
    199 H201       71.8433   63.0993   40.1350 R7         2 LUT      0.087068
    200 H193       69.8895   60.3642   43.3647 R4         2 LUT      0.089716
    201 H192       69.6790   59.5566   44.9301 R4         2 LUT      0.089716
    202 H191       68.3665   60.6529   44.1203 R4         2 LUT      0.089716
    203 H183       67.1789   64.4500   47.2301 R1         2 LUT      0.094572
    204 H182       66.7256   63.0818   46.3784 R1         2 LUT      0.094572
    205 H181       65.5415   63.7438   47.4276 R1         2 LUT      0.094572
    206 H173       68.5823   62.1576   51.0731 T4         2 LUT      0.093752
    207 H172       68.7674   60.3994   51.4156 T4         2 LUT      0.093752
    208 H171       69.8871   61.1680   50.3485 T4         2 LUT      0.093752
    209 H163       69.2214   59.1103   48.8180 T4         2 LUT      0.093752
    210 H162       68.0209   58.5832   49.9811 T4         2 LUT      0.093752
    211 H161       67.5101   59.0260   48.4039 T4         2 LUT      0.093752
    212 HO3        66.3612   61.8069   52.6281 Q1         2 LUT      0.300121
    213 H8         69.5062   63.0854   46.6918 U7         2 LUT      0.080784
    214 H7         68.5719   60.2116   46.8643 U6         2 LUT      0.042190
    215 H42        65.5050   63.7782   49.7115 U5         2 LUT      0.145166
    216 H41        66.9272   63.8459   50.4379 U5         2 LUT      0.145166
    217 H35        76.9661   65.2503   42.2089 T3         2 LUT      0.077919
    218 H34        77.8229   64.1520   39.2986 T2         2 LUT      0.073626
    219 H32        79.7681   64.5375   38.3580 T1         2 LUT      0.092510
    220 H31        81.8238   66.2794   39.7980 U9         2 LUT      0.070048
    221 H30        81.9748   64.8325   37.1012 U8         2 LUT      0.085442
    222 H3         64.7734   61.8726   50.2058 U3         2 LUT     -0.031596
    223 H28        83.7979   64.8711   35.7648 U7         2 LUT      0.084728
    224 H27        85.8853   66.9922   36.3490 U6         2 LUT      0.087291
    225 H26        85.5391   64.7083   34.3587 Q6         2 LUT      0.075325
    226 H24        86.6403   66.9624   31.4042 Q5         2 LUT      0.094482
    227 H23        88.9883   66.4758   32.7039 U3         2 LUT     -0.024869
    228 H22        65.8527   60.2583   49.3449 U2         2 LUT      0.127376
    229 H21        66.3827   59.8763   50.9279 U2         2 LUT      0.127376
    230 H15        75.6262   63.4935   40.0450 T3         2 LUT      0.093200
    231 H14        74.7477   64.4464   42.7522 T2         2 LUT      0.068865
    232 H12        72.9210   63.6560   43.8357 T1         2 LUT      0.095507
    233 H11        71.1735   61.8632   42.2928 U9         2 LUT      0.068930
    234 H10        71.1105   63.3452   45.1135 U8         2 LUT      0.083911
    235 H1         88.5799   65.5292   30.5271 Q1         2 LUT      0.297311
@<TRIPOS>BOND
    1     6     1 1
    2     7     2 1
    3     8     3 1
    4     9     4 1
    5    11     4 1
    6    12     6 1
    7    13     9 1
    8    16     9 1
    9    25     5 1
   10    25    16 1
   11    26    10 1
   12    26    17 1
   13    27    18 1
   14    28    14 1
   15    28    19 1
   16    29    12 1
   17    30    13 1
   18    31    24 1
   19    32     1 1
   20    32    25 1
   21    33    21 1
   22    33    26 1
   23    34    22 1
   24    34    27 1
   25    35    23 1
   26    35    28 1
   27    36    12 1
   28    36    24 1
   29    37    13 1
   30    37    15 1
   31    38    31 1
   32    39    20 1
   33    39    32 1
   34    40     2 1
   35    40    33 1
   36    41     3 1
   37    41    34 1
   38    42     4 1
   39    42    35 1
   40    43    38 1
   41    44     5 1
   42    44    17 1
   43    44    39 1
   44    45    10 1
   45    45    18 1
   46    45    40 1
   47    46    19 1
   48    46    41 1
   49    47    14 1
   50    47    16 1
   51    47    42 1
   52    48    38 1
   53    49    48 1
   54    50    49 1
   55    51    50 1
   56    52    51 1
   57    53    51 1
   58    54    53 1
   59    55    54 1
   60    56    55 1
   61    57    56 1
   62    58    56 1
   63    59    58 1
   64    60    59 1
   65    61    60 1
   66    62    61 1
   67    63    61 1
   68    64    27 1
   69    64    46 1
   70    65     5 1
   71    65    10 1
   72    65    64 1
   73    65    14 1
   74    66    23 1
   75    67    23 1
   76    68    23 1
   77    69    22 1
   78    70    22 1
   79    71    22 1
   80    72    21 1
   81    73    21 1
   82    74    21 1
   83    75    20 1
   84    76    20 1
   85    77    20 1
   86    78    15 1
   87    79    15 1
   88    80    15 1
   89    81     8 1
   90    82     8 1
   91    83     8 1
   92    84     7 1
   93    85     7 1
   94    86     6 1
   95    87     6 1
   96    88     3 1
   97    89     3 1
   98    90     1 1
   99    91     1 1
  100    92    63 1
  101    93    63 1
  102    94    63 1
  103    95    62 1
  104    96    62 1
  105    97    62 1
  106    98    60 1
  107    99    60 1
  108   100    59 1
  109   101    59 1
  110   102    58 1
  111   103    58 1
  112   104    57 1
  113   105    57 1
  114   106    57 1
  115   107    55 1
  116   108    55 1
  117   109    54 1
  118   110    54 1
  119   111    53 1
  120   112    53 1
  121   113    19 1
  122   114    18 1
  123   115    17 1
  124   116     9 1
  125   117     2 1
  126   118    52 1
  127   119    52 1
  128   120    52 1
  129   121    51 1
  130   122    50 1
  131   123    50 1
  132   124    49 1
  133   125    49 1
  134   126    48 1
  135   127    48 1
  136   128    43 1
  137   129    43 1
  138   130    43 1
  139   131    39 1
  140   132    32 1
  141   133    31 1
  142   134    61 1
  143   135    56 1
  144   136    24 1
  145   137    24 1
  146   139   138 1
  147   140   139 1
  148   141   140 1
  149   142   140 1
  150   143   142 1
  151   144   138 1
  152   144   143 1
  153   145   144 1
  154   146   145 1
  155   147   146 1
  156   148   147 1
  157   149   148 1
  158   150   149 1
  159   151   150 1
  160   152   151 1
  161   153   152 1
  162   154   138 1
  163   155   138 1
  164   156   143 1
  165   157   147 1
  166   158   151 1
  167   160   159 1
  168   161   160 1
  169   162   161 1
  170   163   161 1
  171   164   163 1
  172   165   159 1
  173   165   164 1
  174   166   165 1
  175   167   166 1
  176   168   167 1
  177   169   168 1
  178   170   169 1
  179   171   170 1
  180   172   171 1
  181   173   172 1
  182   174   153 1
  183   174   173 1
  184   175   159 1
  185   176   159 1
  186   177   164 1
  187   178   168 1
  188   179   172 1
  189   180   179 1
  190   181   179 1
  191   182   179 1
  192   183   178 1
  193   184   178 1
  194   185   178 1
  195   186   177 1
  196   187   177 1
  197   188   177 1
  198   189   176 1
  199   190   176 1
  200   191   176 1
  201   192   175 1
  202   193   175 1
  203   194   175 1
  204   195   160 1
  205   196   160 1
  206   197   158 1
  207   198   158 1
  208   199   158 1
  209   200   157 1
  210   201   157 1
  211   202   157 1
  212   203   156 1
  213   204   156 1
  214   205   156 1
  215   206   155 1
  216   207   155 1
  217   208   155 1
  218   209   154 1
  219   210   154 1
  220   211   154 1
  221   212   141 1
  222   213   146 1
  223   214   145 1
  224   215   142 1
  225   216   142 1
  226   217   174 1
  227   218   173 1
  228   219   171 1
  229   220   170 1
  230   221   169 1
  231   222   140 1
  232   223   167 1
  233   224   166 1
  234   225   165 1
  235   226   163 1
  236   227   161 1
  237   228   139 1
  238   229   139 1
  239   230   153 1
  240   231   152 1
  241   232   150 1
  242   233   149 1
  243   234   148 1
  244   235   162 1
  245   65    153 1
  246   65    174 1
@<TRIPOS>SUBSTRUCTURE
      1 CLA               1 ****               0 ****  **** 
      2 LUT             138 ****               0 ****  **** 
