@<TRIPOS>MOLECULE
Cpptraj generated mol2 file.
  235   246     2     0     0
SMALL
USER_CHARGES


@<TRIPOS>ATOM
      1 CAA        78.2171   58.8858   34.2766 a2         1 CLA     -0.055900
      2 CAB        78.4518   62.0500   43.2025 c8         1 CLA     -0.148500
      3 CAC        71.4358   58.0682   42.7744 a2         1 CLA     -0.012600
      4 CAD        73.9283   56.0714   35.3037 ck         1 CLA      0.398800
      5 NA         77.1925   58.9391   37.6658 ns         1 CLA     -0.225500
      6 CBA        79.3613   58.6956   33.2482 a2         1 CLA     -0.135000
      7 CBB        79.6798   62.2037   43.7067 c0         1 CLA     -0.395200
      8 CBC        71.6870   56.4862   42.7292 a3         1 CLA     -0.037700
      9 CBD        75.3993   56.6406   34.9885 a1         1 CLA     -0.053900
     10 NB         77.0640   60.4920   40.1753 nm         1 CLA     -0.295700
     11 OBD        73.2864   55.2823   34.5639 o2         1 CLA     -0.494600
     12 CGA        79.7990   57.2977   32.8301 c4         1 CLA      0.827000
     13 CGD        76.3888   55.5632   34.5931 c4         1 CLA      0.655300
     14 ND         74.3189   58.0700   38.2000 nm         1 CLA     -0.291600
     15 CED        77.2138   53.3349   34.9745 a3         1 CLA      0.005400
     16 CHA        75.8172   57.5356   36.1992 cs         1 CLA     -0.123800
     17 CHB        79.0482   60.3653   38.5915 aa         1 CLA     -0.291900
     18 CHC        75.8302   60.6578   42.3160 aa         1 CLA     -0.090400
     19 CHD        72.5434   57.9557   39.8620 aa         1 CLA     -0.052000
     20 CMA        80.6620   58.4686   37.0027 a3         1 CLA     -0.230700
     21 CMB        80.3748   62.3294   40.6395 a3         1 CLA     -0.180800
     22 CMC        73.3329   60.1415   44.4113 a3         1 CLA     -0.134000
     23 CMD        71.2570   55.9768   37.6231 a3         1 CLA     -0.141100
     24 C1         80.6183   55.2825   33.7006 a2         1 CLA      0.023000
     25 C1A        77.0130   58.2623   36.4872 ac         1 CLA     -0.015100
     26 C1B        78.3881   60.8263   39.7533 cr         1 CLA      0.054700
     27 C1C        74.6385   59.9617   42.0643 cn         1 CLA     -0.005600
     28 C1D        73.0507   57.6281   38.5574 ap         1 CLA     -0.047300
     29 O1A        79.5303   56.7442   31.7735 o2         1 CLA     -0.610800
     30 O1D        77.3749   55.8111   33.9134 o2         1 CLA     -0.558200
     31 C2         81.2081   54.6788   34.9374 c8         1 CLA     -0.325100
     32 C2A        78.3183   58.2261   35.6584 a1         1 CLA      0.098600
     33 C2B        78.9989   61.6315   40.7352 cb         1 CLA      0.088500
     34 C2C        73.4716   59.6836   42.9440 cb         1 CLA      0.053700
     35 C2D        72.5634   56.7391   37.5568 cb         1 CLA      0.058900
     36 O2A        80.3818   56.6662   33.9170 o1         1 CLA     -0.437200
     37 O2D        76.1821   54.3574   35.2810 o1         1 CLA     -0.357600
     38 C3         82.1845   53.7414   34.9204 c5         1 CLA      0.031200
     39 C3A        79.3287   59.0669   36.5087 a1         1 CLA      0.166800
     40 C3B        78.1216   61.5922   41.8081 cb         1 CLA      0.035000
     41 C3C        72.6182   58.7939   42.2339 cb         1 CLA     -0.089900
     42 C3D        73.5938   56.6844   36.5809 cb         1 CLA     -0.035900
     43 C4         81.8457   52.3026   35.0943 a3         1 CLA     -0.053300
     44 C4A        78.4958   59.4833   37.6834 ac         1 CLA      0.001800
     45 C4B        76.9305   60.8833   41.4815 cn         1 CLA     -0.020900
     46 C4C        73.1820   58.6984   40.9026 cr         1 CLA     -0.044400
     47 C4D        74.6624   57.4906   37.0306 c6         1 CLA     -0.046000
     48 C5         83.7159   54.0851   34.8151 a2         1 CLA     -0.070400
     49 C6         84.2269   55.5193   35.0033 a2         1 CLA      0.043900
     50 C7         84.3065   55.8842   36.5249 a2         1 CLA     -0.150000
     51 C8         84.7335   57.4115   36.9590 a1         1 CLA      0.064200
     52 C9         85.9860   57.8981   36.2069 a3         1 CLA     -0.259300
     53 C10        84.9400   57.5547   38.4473 a2         1 CLA     -0.071900
     54 C11        83.6187   57.3853   39.2309 a2         1 CLA      0.014500
     55 C12        83.8389   57.4523   40.6825 a2         1 CLA     -0.112100
     56 C13        82.6392   57.3511   41.5837 a1         1 CLA      0.089200
     57 C14        81.4666   58.3971   41.4337 a3         1 CLA     -0.239100
     58 C15        83.0018   57.2774   43.0552 a2         1 CLA     -0.102200
     59 C16        83.3619   58.6076   43.7391 a2         1 CLA      0.023900
     60 C17        83.8578   58.3528   45.2080 a2         1 CLA     -0.105700
     61 C18        84.0135   59.6256   46.0520 a1         1 CLA      0.206800
     62 C19        82.6676   60.2721   46.4758 a3         1 CLA     -0.280100
     63 C20        84.9625   59.5259   47.3241 a3         1 CLA     -0.280100
     64 NC         74.3640   59.4254   40.7760 nx         1 CLA     -0.309200
     65 MG         75.6944   59.4625   39.0731 mg         1 CLA      0.895000
     66 HMD3       71.1415   55.3821   36.6873 dc         1 CLA      0.064300
     67 HMD2       71.2383   55.3136   38.4703 dc         1 CLA      0.064300
     68 HMD1       70.4466   56.6894   37.6450 dc         1 CLA      0.064300
     69 HMC3       73.4037   59.2734   45.0224 dc         1 CLA      0.052100
     70 HMC2       74.1732   60.7774   44.7640 dc         1 CLA      0.052100
     71 HMC1       72.3656   60.6813   44.6288 dc         1 CLA      0.052100
     72 HMB3       80.3734   62.8309   39.6893 dc         1 CLA      0.063600
     73 HMB2       80.4391   63.1414   41.4304 dc         1 CLA      0.063600
     74 HMB1       81.1468   61.5825   40.5848 dc         1 CLA      0.063600
     75 HMA3       81.1839   59.3566   37.3066 dc         1 CLA      0.058300
     76 HMA2       80.6101   57.8488   37.9018 dc         1 CLA      0.058300
     77 HMA1       81.1733   57.9403   36.2018 dc         1 CLA      0.058300
     78 HED3       77.0406   52.3287   35.3757 dc         1 CLA      0.079300
     79 HED2       77.3416   53.4016   33.8583 dc         1 CLA      0.079300
     80 HED1       78.1574   53.6485   35.4424 dc         1 CLA      0.079300
     81 HBC3       72.6406   56.3716   43.2057 dc         1 CLA      0.016300
     82 HBC2       71.0164   56.1694   43.4866 dc         1 CLA      0.016300
     83 HBC1       71.6186   55.8712   41.8284 dc         1 CLA      0.016300
     84 HBB2       79.7575   62.4725   44.7404 da         1 CLA      0.183000
     85 HBB1       80.5922   61.7478   43.1875 da         1 CLA      0.183000
     86 HBA2       78.9403   59.1409   32.2880 dc         1 CLA      0.029400
     87 HBA1       80.2553   59.2682   33.4939 dc         1 CLA      0.029400
     88 HAC2       71.2784   58.4226   43.7803 dc         1 CLA      0.029300
     89 HAC1       70.5220   58.2619   42.1534 dc         1 CLA      0.029300
     90 HAA2       77.3812   58.2756   33.8858 dc         1 CLA      0.028700
     91 HAA1       77.6847   59.8176   34.2353 dc         1 CLA      0.028700
     92 H203       84.5544   58.8156   48.0532 dc         1 CLA      0.065600
     93 H202       85.9934   59.1373   47.2036 dc         1 CLA      0.065600
     94 H201       84.9095   60.5025   47.9362 dc         1 CLA      0.065600
     95 H193       83.0201   61.1204   47.0022 dc         1 CLA      0.065600
     96 H192       82.1761   60.6217   45.5982 dc         1 CLA      0.065600
     97 H191       81.9858   59.6141   47.0502 dc         1 CLA      0.065600
     98 H172       82.9382   57.9249   45.6162 dc         1 CLA      0.027600
     99 H171       84.7290   57.6202   45.2160 dc         1 CLA      0.027600
    100 H162       84.1711   59.1067   43.1315 dc         1 CLA      0.002900
    101 H161       82.4483   59.1815   43.9408 dc         1 CLA      0.002900
    102 H152       82.1699   56.8202   43.5657 dc         1 CLA      0.029100
    103 H151       83.8358   56.5225   43.1327 dc         1 CLA      0.029100
    104 H143       81.7837   59.4321   41.5762 dc         1 CLA      0.063600
    105 H142       81.1714   58.3123   40.4131 dc         1 CLA      0.063600
    106 H141       80.6680   58.1679   42.1656 dc         1 CLA      0.063600
    107 H122       84.5449   56.6119   40.8662 dc         1 CLA      0.032500
    108 H121       84.3663   58.3623   40.9428 dc         1 CLA      0.032500
    109 H112       82.9086   58.1968   38.9049 dc         1 CLA      0.006600
    110 H111       83.1528   56.4248   39.0213 dc         1 CLA      0.006600
    111 H102       85.6621   56.8015   38.7761 dc         1 CLA      0.024100
    112 H101       85.2882   58.5651   38.7743 dc         1 CLA      0.024100
    113 HHD        71.6512   57.5405   40.0851 da         1 CLA      0.174300
    114 HHC        75.8897   61.0160   43.3023 da         1 CLA      0.136800
    115 HHB        80.0810   60.6406   38.3177 da         1 CLA      0.138300
    116 HBD        75.2506   57.2850   34.1255 dc         1 CLA      0.107700
    117 HAB        77.6177   62.3053   43.9087 da         1 CLA      0.155200
    118 H93        85.9532   57.8584   35.1450 dc         1 CLA      0.069500
    119 H92        85.9406   58.9753   36.5066 dc         1 CLA      0.069500
    120 H91        86.8635   57.4246   36.5774 dc         1 CLA      0.069500
    121 H8         83.9367   58.1578   36.6368 dc         1 CLA      0.029300
    122 H72        83.3830   55.5501   36.9819 dc         1 CLA      0.044400
    123 H71        85.0574   55.1548   36.8454 dc         1 CLA      0.044400
    124 H62        85.2131   55.4764   34.5239 dc         1 CLA      0.015600
    125 H61        83.6744   56.2576   34.4648 dc         1 CLA      0.015600
    126 H52        84.3427   53.5685   35.5304 dc         1 CLA      0.033200
    127 H51        83.9343   53.8490   33.7914 dc         1 CLA      0.033200
    128 H43        82.2179   51.9046   36.0485 dc         1 CLA      0.037000
    129 H42        80.8103   52.0897   35.0604 dc         1 CLA      0.037000
    130 H41        82.4328   51.6211   34.4082 dc         1 CLA      0.037000
    131 H3A        79.5549   60.0431   35.9996 dc         1 CLA      0.041100
    132 H2A        78.7346   57.2617   35.5996 dc         1 CLA      0.083100
    133 H2         81.0670   55.2097   35.8443 da         1 CLA      0.180900
    134 H18        84.4751   60.2949   45.2852 dc         1 CLA     -0.003900
    135 H13        82.2192   56.4113   41.4692 dc         1 CLA      0.019700
    136 H12        79.7864   54.6648   33.5115 dc         1 CLA      0.120400
    137 H11        81.2906   55.2078   32.8459 dc         1 CLA      0.120400
    138 C1         68.2020   61.1891   49.4887 Z1         2 LUT      0.509236
    139 C2         67.9948   61.8726   50.8458 Z2         2 LUT     -0.434695
    140 C3         66.5743   62.3565   51.1370 Z3         2 LUT      0.437453
    141 O3         66.5415   63.1571   52.2695 S1         2 LUT     -0.547129
    142 C4         66.1138   63.1399   49.9933 Z4         2 LUT     -0.468603
    143 C5         66.6038   62.8594   48.6213 Z5         2 LUT      0.279246
    144 C6         67.6032   62.0265   48.3783 Z6         2 LUT     -0.305473
    145 C7         68.2525   61.8887   47.1126 Z7         2 LUT      0.069402
    146 C8         69.2718   62.6369   46.5105 Z8         2 LUT     -0.191631
    147 C9         69.9304   62.4574   45.2061 Z9         2 LUT      0.196698
    148 C10        70.8619   63.3133   44.6825 Y1         2 LUT     -0.208611
    149 C11        71.6974   63.2265   43.4477 Y2         2 LUT      0.030784
    150 C12        72.6704   64.1389   43.1165 Y3         2 LUT     -0.220316
    151 C13        73.6885   63.9634   42.0998 Y4         2 LUT      0.215937
    152 C14        74.8589   64.6760   42.2295 Y5         2 LUT     -0.185793
    153 C15        76.0033   64.6328   41.3560 Y6         2 LUT     -0.057835
    154 C16        67.3981   59.8798   49.5258 Y7         2 LUT     -0.405615
    155 C17        69.6810   60.6873   49.3471 Y7         2 LUT     -0.405615
    156 C18        66.1394   63.8384   47.6214 Y9         2 LUT     -0.369639
    157 C19        69.4176   61.2315   44.4400 W1         2 LUT     -0.333362
    158 C20        73.2402   63.3298   40.8853 W2         2 LUT     -0.323439
    159 C21        87.8274   66.0814   35.2167 Z1         2 LUT      0.406104
    160 C22        88.4970   65.5775   34.0083 Z2         2 LUT     -0.404965
    161 C23        88.3096   66.4549   32.7893 Z3         2 LUT      0.391255
    162 O23        88.8947   65.9268   31.6206 S1         2 LUT     -0.528210
    163 C24        86.9356   66.9364   32.6019 W6         2 LUT     -0.258361
    164 C25        85.9790   67.0034   33.5610 Z5         2 LUT      0.133546
    165 C26        86.2955   66.5067   34.9634 W8         2 LUT     -0.147008
    166 C27        85.5617   67.1484   36.1371 Z7         2 LUT      0.023843
    167 C28        84.5558   66.4776   36.7934 Z8         2 LUT     -0.216987
    168 C29        83.8238   66.8504   37.9940 Z9         2 LUT      0.206524
    169 C30        82.6806   66.1547   38.2434 Y1         2 LUT     -0.215556
    170 C31        81.6615   66.4315   39.2779 Y2         2 LUT      0.025142
    171 C32        80.5249   65.6629   39.5960 Y3         2 LUT     -0.212209
    172 C33        79.4443   66.0029   40.5665 Y4         2 LUT      0.240937
    173 C34        78.2908   65.2665   40.5798 Y5         2 LUT     -0.218862
    174 C35        77.0892   65.4862   41.3366 Y6         2 LUT     -0.023547
    175 C36        88.5195   67.3373   35.7856 Y7         2 LUT     -0.393485
    176 C37        87.9590   64.8683   36.1649 Y7         2 LUT     -0.393485
    177 C38        84.5559   67.6521   33.3609 Y9         2 LUT     -0.387526
    178 C39        84.2351   68.1402   38.7285 W1         2 LUT     -0.322618
    179 C40        79.4753   67.4366   41.0980 W2         2 LUT     -0.358472
    180 H403       80.3467   67.7191   41.6980 R7         2 LUT      0.097720
    181 H402       79.2529   68.2513   40.3233 R7         2 LUT      0.097720
    182 H401       78.6853   67.7233   41.8013 R7         2 LUT      0.097720
    183 H393       83.3783   68.5748   39.2994 R4         2 LUT      0.082505
    184 H392       85.0002   67.9509   39.4246 R4         2 LUT      0.082505
    185 H391       84.5262   68.8867   38.0196 R4         2 LUT      0.082505
    186 H383       84.2751   67.5961   32.3528 R1         2 LUT      0.104030
    187 H382       83.8012   67.1822   33.9795 R1         2 LUT      0.104030
    188 H381       84.6405   68.7490   33.4324 R1         2 LUT      0.104030
    189 H373       88.9118   64.9084   36.7162 T4         2 LUT      0.089537
    190 H372       87.2521   65.0334   36.9788 T4         2 LUT      0.089537
    191 H371       87.8565   63.9700   35.6775 T4         2 LUT      0.089537
    192 H363       89.5414   67.1626   36.2784 T4         2 LUT      0.089537
    193 H362       88.7279   67.9349   34.9279 T4         2 LUT      0.089537
    194 H361       87.9443   67.8702   36.5535 T4         2 LUT      0.089537
    195 H222       89.5668   65.5220   34.1827 U2         2 LUT      0.127376
    196 H221       88.0803   64.6019   33.7088 U2         2 LUT      0.127376
    197 H203       73.9259   63.0719   40.1100 R7         2 LUT      0.087068
    198 H202       72.8892   62.3813   41.1150 R7         2 LUT      0.087068
    199 H201       72.5184   63.9555   40.4116 R7         2 LUT      0.087068
    200 H193       69.3836   60.3225   45.0832 R4         2 LUT      0.089716
    201 H192       68.3599   61.3798   44.0800 R4         2 LUT      0.089716
    202 H191       70.0704   60.8936   43.6474 R4         2 LUT      0.089716
    203 H183       65.1925   64.3007   47.9260 R1         2 LUT      0.094572
    204 H182       66.8423   64.6610   47.5723 R1         2 LUT      0.094572
    205 H181       66.0393   63.3873   46.6411 R1         2 LUT      0.094572
    206 H173       69.8735   60.2544   48.3712 T4         2 LUT      0.093752
    207 H172       70.2587   61.6604   49.4194 T4         2 LUT      0.093752
    208 H171       69.9296   60.0566   50.1191 T4         2 LUT      0.093752
    209 H163       67.8476   59.0880   50.0925 T4         2 LUT      0.093752
    210 H162       66.4159   60.0100   49.7434 T4         2 LUT      0.093752
    211 H161       67.2423   59.6205   48.4988 T4         2 LUT      0.093752
    212 HO3        66.4485   62.5617   53.0129 Q1         2 LUT      0.300121
    213 H8         69.5132   63.5381   47.0227 U7         2 LUT      0.080784
    214 H7         67.8873   60.9757   46.5994 U6         2 LUT      0.042190
    215 H42        64.9867   63.0920   49.8986 U5         2 LUT      0.145166
    216 H41        66.4137   64.1955   50.1463 U5         2 LUT      0.145166
    217 H35        77.0622   66.3200   42.0127 T3         2 LUT      0.077919
    218 H34        78.2264   64.4111   39.9030 T2         2 LUT      0.073626
    219 H32        80.2786   64.8794   38.8573 T1         2 LUT      0.092510
    220 H31        81.7636   67.2309   39.9854 U9         2 LUT      0.070048
    221 H30        82.4737   65.2455   37.6825 U8         2 LUT      0.085442
    222 H3         65.8929   61.4928   51.1260 U3         2 LUT     -0.031596
    223 H28        84.3638   65.5464   36.2994 U7         2 LUT      0.084728
    224 H27        85.8705   68.1749   36.3242 U6         2 LUT      0.087291
    225 H26        85.9187   65.4822   34.7851 Q6         2 LUT      0.075325
    226 H24        86.7389   67.3235   31.5782 Q5         2 LUT      0.094482
    227 H23        89.0956   67.2456   33.0522 U3         2 LUT     -0.024869
    228 H22        68.2831   61.1605   51.6776 U2         2 LUT      0.127376
    229 H21        68.6290   62.7684   51.0477 U2         2 LUT      0.127376
    230 H15        76.1603   63.7637   40.6609 T3         2 LUT      0.093200
    231 H14        74.9680   65.3058   43.1788 T2         2 LUT      0.068865
    232 H12        72.9075   65.0010   43.8337 T1         2 LUT      0.095507
    233 H11        71.5509   62.2743   42.8658 U9         2 LUT      0.068930
    234 H10        71.1472   64.1258   45.4155 U8         2 LUT      0.083911
    235 H1         88.4103   65.2103   31.3104 Q1         2 LUT      0.297311
@<TRIPOS>BOND
    1     6     1 1
    2     7     2 1
    3     8     3 1
    4     9     4 1
    5    11     4 1
    6    12     6 1
    7    13     9 1
    8    16     9 1
    9    25     5 1
   10    25    16 1
   11    26    10 1
   12    26    17 1
   13    27    18 1
   14    28    14 1
   15    28    19 1
   16    29    12 1
   17    30    13 1
   18    31    24 1
   19    32     1 1
   20    32    25 1
   21    33    21 1
   22    33    26 1
   23    34    22 1
   24    34    27 1
   25    35    23 1
   26    35    28 1
   27    36    12 1
   28    36    24 1
   29    37    13 1
   30    37    15 1
   31    38    31 1
   32    39    20 1
   33    39    32 1
   34    40     2 1
   35    40    33 1
   36    41     3 1
   37    41    34 1
   38    42     4 1
   39    42    35 1
   40    43    38 1
   41    44     5 1
   42    44    17 1
   43    44    39 1
   44    45    10 1
   45    45    18 1
   46    45    40 1
   47    46    19 1
   48    46    41 1
   49    47    14 1
   50    47    16 1
   51    47    42 1
   52    48    38 1
   53    49    48 1
   54    50    49 1
   55    51    50 1
   56    52    51 1
   57    53    51 1
   58    54    53 1
   59    55    54 1
   60    56    55 1
   61    57    56 1
   62    58    56 1
   63    59    58 1
   64    60    59 1
   65    61    60 1
   66    62    61 1
   67    63    61 1
   68    64    27 1
   69    64    46 1
   70    65     5 1
   71    65    10 1
   72    65    64 1
   73    65    14 1
   74    66    23 1
   75    67    23 1
   76    68    23 1
   77    69    22 1
   78    70    22 1
   79    71    22 1
   80    72    21 1
   81    73    21 1
   82    74    21 1
   83    75    20 1
   84    76    20 1
   85    77    20 1
   86    78    15 1
   87    79    15 1
   88    80    15 1
   89    81     8 1
   90    82     8 1
   91    83     8 1
   92    84     7 1
   93    85     7 1
   94    86     6 1
   95    87     6 1
   96    88     3 1
   97    89     3 1
   98    90     1 1
   99    91     1 1
  100    92    63 1
  101    93    63 1
  102    94    63 1
  103    95    62 1
  104    96    62 1
  105    97    62 1
  106    98    60 1
  107    99    60 1
  108   100    59 1
  109   101    59 1
  110   102    58 1
  111   103    58 1
  112   104    57 1
  113   105    57 1
  114   106    57 1
  115   107    55 1
  116   108    55 1
  117   109    54 1
  118   110    54 1
  119   111    53 1
  120   112    53 1
  121   113    19 1
  122   114    18 1
  123   115    17 1
  124   116     9 1
  125   117     2 1
  126   118    52 1
  127   119    52 1
  128   120    52 1
  129   121    51 1
  130   122    50 1
  131   123    50 1
  132   124    49 1
  133   125    49 1
  134   126    48 1
  135   127    48 1
  136   128    43 1
  137   129    43 1
  138   130    43 1
  139   131    39 1
  140   132    32 1
  141   133    31 1
  142   134    61 1
  143   135    56 1
  144   136    24 1
  145   137    24 1
  146   139   138 1
  147   140   139 1
  148   141   140 1
  149   142   140 1
  150   143   142 1
  151   144   138 1
  152   144   143 1
  153   145   144 1
  154   146   145 1
  155   147   146 1
  156   148   147 1
  157   149   148 1
  158   150   149 1
  159   151   150 1
  160   152   151 1
  161   153   152 1
  162   154   138 1
  163   155   138 1
  164   156   143 1
  165   157   147 1
  166   158   151 1
  167   160   159 1
  168   161   160 1
  169   162   161 1
  170   163   161 1
  171   164   163 1
  172   165   159 1
  173   165   164 1
  174   166   165 1
  175   167   166 1
  176   168   167 1
  177   169   168 1
  178   170   169 1
  179   171   170 1
  180   172   171 1
  181   173   172 1
  182   174   153 1
  183   174   173 1
  184   175   159 1
  185   176   159 1
  186   177   164 1
  187   178   168 1
  188   179   172 1
  189   180   179 1
  190   181   179 1
  191   182   179 1
  192   183   178 1
  193   184   178 1
  194   185   178 1
  195   186   177 1
  196   187   177 1
  197   188   177 1
  198   189   176 1
  199   190   176 1
  200   191   176 1
  201   192   175 1
  202   193   175 1
  203   194   175 1
  204   195   160 1
  205   196   160 1
  206   197   158 1
  207   198   158 1
  208   199   158 1
  209   200   157 1
  210   201   157 1
  211   202   157 1
  212   203   156 1
  213   204   156 1
  214   205   156 1
  215   206   155 1
  216   207   155 1
  217   208   155 1
  218   209   154 1
  219   210   154 1
  220   211   154 1
  221   212   141 1
  222   213   146 1
  223   214   145 1
  224   215   142 1
  225   216   142 1
  226   217   174 1
  227   218   173 1
  228   219   171 1
  229   220   170 1
  230   221   169 1
  231   222   140 1
  232   223   167 1
  233   224   166 1
  234   225   165 1
  235   226   163 1
  236   227   161 1
  237   228   139 1
  238   229   139 1
  239   230   153 1
  240   231   152 1
  241   232   150 1
  242   233   149 1
  243   234   148 1
  244   235   162 1
  245   65    153 1
  246   65    174 1
@<TRIPOS>SUBSTRUCTURE
      1 CLA               1 ****               0 ****  **** 
      2 LUT             138 ****               0 ****  **** 
