@<TRIPOS>MOLECULE
Cpptraj generated mol2 file.
  235   246     2     0     0
SMALL
USER_CHARGES


@<TRIPOS>ATOM
      1 CAA        79.2303   58.6362   34.8794 a2         1 CLA     -0.055900
      2 CAB        78.9548   62.4365   43.6970 c8         1 CLA     -0.148500
      3 CAC        72.3388   57.8148   43.1039 a2         1 CLA     -0.012600
      4 CAD        75.2176   55.7521   35.8223 ck         1 CLA      0.398800
      5 NA         78.1560   58.8128   38.2022 ns         1 CLA     -0.225500
      6 CBA        80.4981   58.8079   34.0297 a2         1 CLA     -0.135000
      7 CBB        79.8893   63.3437   44.1648 c0         1 CLA     -0.395200
      8 CBC        72.4899   56.3146   43.3045 a3         1 CLA     -0.037700
      9 CBD        76.5501   56.4642   35.5615 a1         1 CLA     -0.053900
     10 NB         77.8859   60.4511   40.6679 nm         1 CLA     -0.295700
     11 OBD        74.6523   54.9721   35.0926 o2         1 CLA     -0.494600
     12 CGA        81.2264   57.5360   33.5727 c4         1 CLA      0.827000
     13 CGD        77.6505   55.4454   35.2259 c4         1 CLA      0.655300
     14 ND         75.3697   57.7671   38.7381 nm         1 CLA     -0.291600
     15 CED        78.2296   53.0744   35.6387 a3         1 CLA      0.005400
     16 CHA        76.8613   57.2634   36.8306 cs         1 CLA     -0.123800
     17 CHB        79.8841   60.2001   39.2303 aa         1 CLA     -0.291900
     18 CHC        76.5611   60.7519   42.6586 aa         1 CLA     -0.090400
     19 CHD        73.4997   57.6839   40.2251 aa         1 CLA     -0.052000
     20 CMA        81.4489   57.8371   37.9027 a3         1 CLA     -0.230700
     21 CMB        81.3014   61.9980   41.3865 a3         1 CLA     -0.180800
     22 CMC        74.2927   59.8644   44.7761 a3         1 CLA     -0.134000
     23 CMD        72.4288   55.6987   37.9663 a3         1 CLA     -0.141100
     24 C1         82.1618   55.4891   34.4775 a2         1 CLA      0.023000
     25 C1A        78.1051   57.9932   37.1316 ac         1 CLA     -0.015100
     26 C1B        79.2055   60.6732   40.3489 cr         1 CLA      0.054700
     27 C1C        75.4084   59.8967   42.3775 cn         1 CLA     -0.005600
     28 C1D        74.1564   57.3008   39.0058 ap         1 CLA     -0.047300
     29 O1A        81.3105   57.0855   32.4098 o2         1 CLA     -0.610800
     30 O1D        78.4032   55.4921   34.2461 o2         1 CLA     -0.558200
     31 C2         82.9792   55.0398   35.6619 c8         1 CLA     -0.325100
     32 C2A        79.3962   58.0015   36.3415 a1         1 CLA      0.098600
     33 C2B        79.9110   61.4102   41.4489 cb         1 CLA      0.088500
     34 C2C        74.2987   59.4768   43.2603 cb         1 CLA      0.053700
     35 C2D        73.7109   56.3674   37.9860 cb         1 CLA      0.058900
     36 O2A        81.7811   56.8897   34.6544 o1         1 CLA     -0.437200
     37 O2D        77.5520   54.3334   36.0625 o1         1 CLA     -0.357600
     38 C3         84.1168   54.3784   35.6392 c5         1 CLA      0.031200
     39 C3A        80.3643   58.7592   37.2386 a1         1 CLA      0.166800
     40 C3B        78.9010   61.6179   42.4180 cb         1 CLA      0.035000
     41 C3C        73.4568   58.5956   42.5329 cb         1 CLA     -0.089900
     42 C3D        74.7152   56.3636   37.1125 cb         1 CLA     -0.035900
     43 C4         84.1694   52.8631   35.5118 a3         1 CLA     -0.053300
     44 C4A        79.3858   59.3329   38.2331 ac         1 CLA      0.001800
     45 C4B        77.7004   60.9645   41.8896 cn         1 CLA     -0.020900
     46 C4C        74.0386   58.4538   41.2148 cr         1 CLA     -0.044400
     47 C4D        75.6955   57.2422   37.5952 c6         1 CLA     -0.046000
     48 C5         85.3712   55.1934   35.5201 a2         1 CLA     -0.070400
     49 C6         85.5252   56.1925   36.6623 a2         1 CLA      0.043900
     50 C7         85.6394   55.3990   38.0282 a2         1 CLA     -0.150000
     51 C8         86.0679   56.3220   39.1565 a1         1 CLA      0.064200
     52 C9         87.5912   56.5596   39.0748 a3         1 CLA     -0.259300
     53 C10        85.7910   55.7214   40.6322 a2         1 CLA     -0.071900
     54 C11        85.7799   56.7746   41.7145 a2         1 CLA      0.014500
     55 C12        85.7762   56.3257   43.1976 a2         1 CLA     -0.112100
     56 C13        85.8185   57.4495   44.2559 a1         1 CLA      0.089200
     57 C14        87.1951   58.1707   44.1819 a3         1 CLA     -0.239100
     58 C15        85.4444   57.0260   45.7476 a2         1 CLA     -0.102200
     59 C16        85.8411   58.0030   46.8619 a2         1 CLA      0.023900
     60 C17        85.1232   57.7110   48.2698 a2         1 CLA     -0.105700
     61 C18        85.3571   58.7588   49.3322 a1         1 CLA      0.206800
     62 C19        84.8213   60.1374   48.8845 a3         1 CLA     -0.280100
     63 C20        84.6982   58.4589   50.7226 a3         1 CLA     -0.280100
     64 NC         75.1734   59.2773   41.1574 nx         1 CLA     -0.309200
     65 MG         76.6615   59.2010   39.6953 mg         1 CLA      0.895000
     66 HMD3       72.3444   55.0451   38.8733 dc         1 CLA      0.064300
     67 HMD2       71.6565   56.4238   37.7953 dc         1 CLA      0.064300
     68 HMD1       72.4061   55.0837   37.0851 dc         1 CLA      0.064300
     69 HMC3       73.2894   59.8595   45.1447 dc         1 CLA      0.052100
     70 HMC2       74.8600   59.1415   45.3373 dc         1 CLA      0.052100
     71 HMC1       74.6890   60.8457   44.9768 dc         1 CLA      0.052100
     72 HMB3       81.5551   62.1875   40.3059 dc         1 CLA      0.063600
     73 HMB2       81.3150   62.9567   41.9125 dc         1 CLA      0.063600
     74 HMB1       82.0671   61.4374   41.9778 dc         1 CLA      0.063600
     75 HMA3       82.2270   57.4746   37.3320 dc         1 CLA      0.058300
     76 HMA2       81.8725   58.3173   38.7300 dc         1 CLA      0.058300
     77 HMA1       81.0268   56.9674   38.4422 dc         1 CLA      0.058300
     78 HED3       77.9576   52.8117   34.6344 dc         1 CLA      0.079300
     79 HED2       79.2992   53.2685   35.6309 dc         1 CLA      0.079300
     80 HED1       78.0498   52.2567   36.3235 dc         1 CLA      0.079300
     81 HBC3       73.3910   55.8931   43.7748 dc         1 CLA      0.016300
     82 HBC2       71.6484   56.0043   43.9007 dc         1 CLA      0.016300
     83 HBC1       72.3417   55.8302   42.3689 dc         1 CLA      0.016300
     84 HBB2       79.6354   63.7709   45.1691 da         1 CLA      0.183000
     85 HBB1       80.8075   63.6825   43.6126 da         1 CLA      0.183000
     86 HBA2       80.1648   59.1233   33.0423 dc         1 CLA      0.029400
     87 HBA1       81.2501   59.4798   34.4916 dc         1 CLA      0.029400
     88 HAC2       72.1678   58.2223   44.0958 dc         1 CLA      0.029300
     89 HAC1       71.4674   57.9338   42.5526 dc         1 CLA      0.029300
     90 HAA2       78.5080   58.1188   34.2992 dc         1 CLA      0.028700
     91 HAA1       78.8016   59.6535   35.0562 dc         1 CLA      0.028700
     92 H203       83.6200   58.5428   50.6166 dc         1 CLA      0.065600
     93 H202       84.9914   57.4356   51.1660 dc         1 CLA      0.065600
     94 H201       84.8451   59.2553   51.4099 dc         1 CLA      0.065600
     95 H193       84.9151   60.8818   49.7051 dc         1 CLA      0.065600
     96 H192       85.2843   60.4176   47.9858 dc         1 CLA      0.065600
     97 H191       83.7681   60.0189   48.6807 dc         1 CLA      0.065600
     98 H172       84.0499   57.8354   48.0444 dc         1 CLA      0.027600
     99 H171       85.3403   56.7574   48.6314 dc         1 CLA      0.027600
    100 H162       86.8510   58.0786   47.0102 dc         1 CLA      0.002900
    101 H161       85.5141   58.9897   46.5787 dc         1 CLA      0.002900
    102 H152       84.3921   56.7700   45.8504 dc         1 CLA      0.029100
    103 H151       85.9387   56.1064   45.7887 dc         1 CLA      0.029100
    104 H143       87.3036   58.8822   43.3684 dc         1 CLA      0.063600
    105 H142       87.4136   58.8198   45.0546 dc         1 CLA      0.063600
    106 H141       88.0220   57.4679   44.2488 dc         1 CLA      0.063600
    107 H122       84.8318   55.8239   43.4470 dc         1 CLA      0.032500
    108 H121       86.6478   55.7502   43.3966 dc         1 CLA      0.032500
    109 H112       86.5626   57.5368   41.6673 dc         1 CLA      0.006600
    110 H111       84.7856   57.2679   41.5862 dc         1 CLA      0.006600
    111 H102       84.7802   55.2443   40.5772 dc         1 CLA      0.024100
    112 H101       86.5661   55.1075   40.9103 dc         1 CLA      0.024100
    113 HHD        72.4793   57.3684   40.3100 da         1 CLA      0.174300
    114 HHC        76.6017   61.3208   43.5607 da         1 CLA      0.136800
    115 HHB        80.8867   60.4693   39.0943 da         1 CLA      0.138300
    116 HBD        76.3626   57.0774   34.7304 dc         1 CLA      0.107700
    117 HAB        78.1947   62.1544   44.4333 da         1 CLA      0.155200
    118 H93        87.8693   57.0925   38.1368 dc         1 CLA      0.069500
    119 H92        88.0000   57.2881   39.7945 dc         1 CLA      0.069500
    120 H91        88.1849   55.6971   39.2421 dc         1 CLA      0.069500
    121 H8         85.4528   57.1728   39.0365 dc         1 CLA      0.029300
    122 H72        84.6551   55.0549   38.2152 dc         1 CLA      0.044400
    123 H71        86.3224   54.6466   38.1440 dc         1 CLA      0.044400
    124 H62        86.5239   56.6927   36.4990 dc         1 CLA      0.015600
    125 H61        84.7415   56.9084   36.6779 dc         1 CLA      0.015600
    126 H52        86.2191   54.5286   35.4812 dc         1 CLA      0.033200
    127 H51        85.4702   55.6903   34.5379 dc         1 CLA      0.033200
    128 H43        84.8785   52.3772   34.9196 dc         1 CLA      0.037000
    129 H42        84.3038   52.5722   36.5911 dc         1 CLA      0.037000
    130 H41        83.1107   52.6109   35.2032 dc         1 CLA      0.037000
    131 H3A        80.9331   59.4392   36.6130 dc         1 CLA      0.041100
    132 H2A        79.5864   56.9244   36.2431 dc         1 CLA      0.083100
    133 H2         82.6518   55.4578   36.5575 da         1 CLA      0.180900
    134 H18        86.4382   58.8152   49.6532 dc         1 CLA     -0.003900
    135 H13        85.0464   58.1424   44.0441 dc         1 CLA      0.019700
    136 H12        81.2053   54.9255   34.5180 dc         1 CLA      0.120400
    137 H11        82.5552   55.3344   33.4708 dc         1 CLA      0.120400
    138 C1         69.0122   61.0945   50.0873 Z1         2 LUT      0.509236
    139 C2         67.6568   60.9832   50.8159 Z2         2 LUT     -0.434695
    140 C3         66.8844   62.2733   51.2661 Z3         2 LUT      0.437453
    141 O3         67.2027   62.5058   52.6254 S1         2 LUT     -0.547129
    142 C4         67.2227   63.4528   50.4472 Z4         2 LUT     -0.468603
    143 C5         67.9504   63.1836   49.1781 Z5         2 LUT      0.279246
    144 C6         68.7999   62.1297   48.9467 Z6         2 LUT     -0.305473
    145 C7         69.1943   61.6742   47.6273 Z7         2 LUT      0.069402
    146 C8         70.2511   62.1963   46.9782 Z8         2 LUT     -0.191631
    147 C9         70.7706   61.9886   45.6337 Z9         2 LUT      0.196698
    148 C10        71.7359   62.8207   45.1821 Y1         2 LUT     -0.208611
    149 C11        72.4685   63.0010   43.8827 Y2         2 LUT      0.030784
    150 C12        73.5500   63.7231   43.7842 Y3         2 LUT     -0.220316
    151 C13        74.3995   63.7258   42.5425 Y4         2 LUT      0.215937
    152 C14        75.6413   64.3861   42.5675 Y5         2 LUT     -0.185793
    153 C15        76.7490   64.3136   41.6613 Y6         2 LUT     -0.057835
    154 C16        69.3035   59.6425   49.5521 Y7         2 LUT     -0.405615
    155 C17        69.9955   61.6693   51.1637 Y7         2 LUT     -0.405615
    156 C18        67.3174   64.1033   48.0566 Y9         2 LUT     -0.369639
    157 C19        70.1313   60.9437   44.7354 W1         2 LUT     -0.333362
    158 C20        73.7795   63.0914   41.2611 W2         2 LUT     -0.323439
    159 C21        87.9486   65.3291   35.4215 Z1         2 LUT      0.406104
    160 C22        88.5962   64.7896   34.2213 Z2         2 LUT     -0.404965
    161 C23        88.7477   65.7103   32.9846 Z3         2 LUT      0.391255
    162 O23        88.9671   64.8347   31.8655 S1         2 LUT     -0.528210
    163 C24        87.5136   66.4466   32.7214 W6         2 LUT     -0.258361
    164 C25        86.4403   66.4676   33.4908 Z5         2 LUT      0.133546
    165 C26        86.4625   65.7587   34.9131 W8         2 LUT     -0.147008
    166 C27        85.7865   66.5765   35.9122 Z7         2 LUT      0.023843
    167 C28        84.5678   66.2674   36.4864 Z8         2 LUT     -0.216987
    168 C29        83.9539   66.7645   37.7202 Z9         2 LUT      0.206524
    169 C30        82.8427   66.1595   38.2061 Y1         2 LUT     -0.215556
    170 C31        82.1141   66.4388   39.3790 Y2         2 LUT      0.025142
    171 C32        80.9964   65.7390   39.8522 Y3         2 LUT     -0.212209
    172 C33        80.1365   65.8867   41.0198 Y4         2 LUT      0.240937
    173 C34        79.0448   65.0716   40.9834 Y5         2 LUT     -0.218862
    174 C35        77.8791   64.9690   41.8101 Y6         2 LUT     -0.023547
    175 C36        88.9062   66.4444   35.8947 Y7         2 LUT     -0.393485
    176 C37        87.9669   64.3029   36.6490 Y7         2 LUT     -0.393485
    177 C38        85.2457   67.3012   33.1413 Y9         2 LUT     -0.387526
    178 C39        84.6142   67.9358   38.4296 W1         2 LUT     -0.322618
    179 C40        80.4665   66.9801   42.0062 W2         2 LUT     -0.358472
    180 H403       81.3794   66.9025   42.5045 R7         2 LUT      0.097720
    181 H402       80.4034   67.9630   41.5859 R7         2 LUT      0.097720
    182 H401       79.6496   67.0529   42.7601 R7         2 LUT      0.097720
    183 H393       85.5259   67.5406   38.9929 R4         2 LUT      0.082505
    184 H392       84.9528   68.6115   37.7236 R4         2 LUT      0.082505
    185 H391       84.0558   68.5032   39.1481 R4         2 LUT      0.082505
    186 H383       85.0190   68.0574   33.8258 R1         2 LUT      0.104030
    187 H382       85.5242   67.7687   32.1937 R1         2 LUT      0.104030
    188 H381       84.3239   66.7423   32.9351 R1         2 LUT      0.104030
    189 H373       87.4402   63.3185   36.2831 T4         2 LUT      0.089537
    190 H372       89.0027   64.0961   37.1158 T4         2 LUT      0.089537
    191 H371       87.3454   64.5241   37.4733 T4         2 LUT      0.089537
    192 H363       88.5786   66.8530   36.8408 T4         2 LUT      0.089537
    193 H362       89.8897   66.0330   35.9850 T4         2 LUT      0.089537
    194 H361       88.9830   67.2801   35.1900 T4         2 LUT      0.089537
    195 H222       89.6500   64.3848   34.5259 U2         2 LUT      0.127376
    196 H221       87.9323   63.9459   33.8412 U2         2 LUT      0.127376
    197 H203       73.4225   62.0419   41.4311 R7         2 LUT      0.087068
    198 H202       72.9313   63.5080   40.7417 R7         2 LUT      0.087068
    199 H201       74.4448   62.8992   40.4255 R7         2 LUT      0.087068
    200 H193       69.7825   60.0739   45.3886 R4         2 LUT      0.089716
    201 H192       69.3986   61.2384   44.0593 R4         2 LUT      0.089716
    202 H191       70.7803   60.3770   44.0565 R4         2 LUT      0.089716
    203 H183       66.7647   63.5114   47.2570 R1         2 LUT      0.094572
    204 H182       66.8082   64.9692   48.5260 R1         2 LUT      0.094572
    205 H181       68.1424   64.7406   47.5727 R1         2 LUT      0.094572
    206 H173       70.2428   60.8938   51.9076 T4         2 LUT      0.093752
    207 H172       71.0529   62.0587   50.8002 T4         2 LUT      0.093752
    208 H171       69.5892   62.4707   51.7671 T4         2 LUT      0.093752
    209 H163       68.4051   59.1832   49.1702 T4         2 LUT      0.093752
    210 H162       70.0507   59.5980   48.6911 T4         2 LUT      0.093752
    211 H161       69.7413   59.0761   50.3928 T4         2 LUT      0.093752
    212 HO3        66.4008   62.4496   53.2427 Q1         2 LUT      0.300121
    213 H8         70.6991   63.0761   47.5698 U7         2 LUT      0.080784
    214 H7         68.6714   60.8526   47.1918 U6         2 LUT      0.042190
    215 H42        66.3114   64.0860   50.3019 U5         2 LUT      0.145166
    216 H41        67.9051   64.1797   50.9405 U5         2 LUT      0.145166
    217 H35        77.8462   65.5283   42.7646 T3         2 LUT      0.077919
    218 H34        78.9345   64.3378   40.2026 T2         2 LUT      0.073626
    219 H32        80.6580   64.9731   39.1041 T1         2 LUT      0.092510
    220 H31        82.4013   67.2563   40.0006 U9         2 LUT      0.070048
    221 H30        82.4260   65.3665   37.5597 U8         2 LUT      0.085442
    222 H3         65.7687   62.1275   51.1448 U3         2 LUT     -0.031596
    223 H28        83.9229   65.5264   36.0355 U7         2 LUT      0.084728
    224 H27        86.4287   67.2902   36.4666 U6         2 LUT      0.087291
    225 H26        85.7937   64.9229   35.0438 Q6         2 LUT      0.075325
    226 H24        87.5135   67.0194   31.8114 Q5         2 LUT      0.094482
    227 H23        89.5615   66.3801   33.2486 U3         2 LUT     -0.024869
    228 H22        67.0100   60.5643   50.0650 U2         2 LUT      0.127376
    229 H21        67.9321   60.2828   51.5862 U2         2 LUT      0.127376
    230 H15        76.6472   63.6348   40.8116 T3         2 LUT      0.093200
    231 H14        75.8335   64.9084   43.5196 T2         2 LUT      0.068865
    232 H12        73.8008   64.3060   44.6661 T1         2 LUT      0.095507
    233 H11        72.0278   62.4468   43.0706 U9         2 LUT      0.068930
    234 H10        72.0047   63.4639   46.0414 U8         2 LUT      0.083911
    235 H1         89.5161   65.2276   31.1134 Q1         2 LUT      0.297311
@<TRIPOS>BOND
    1     6     1 1
    2     7     2 1
    3     8     3 1
    4     9     4 1
    5    11     4 1
    6    12     6 1
    7    13     9 1
    8    16     9 1
    9    25     5 1
   10    25    16 1
   11    26    10 1
   12    26    17 1
   13    27    18 1
   14    28    14 1
   15    28    19 1
   16    29    12 1
   17    30    13 1
   18    31    24 1
   19    32     1 1
   20    32    25 1
   21    33    21 1
   22    33    26 1
   23    34    22 1
   24    34    27 1
   25    35    23 1
   26    35    28 1
   27    36    12 1
   28    36    24 1
   29    37    13 1
   30    37    15 1
   31    38    31 1
   32    39    20 1
   33    39    32 1
   34    40     2 1
   35    40    33 1
   36    41     3 1
   37    41    34 1
   38    42     4 1
   39    42    35 1
   40    43    38 1
   41    44     5 1
   42    44    17 1
   43    44    39 1
   44    45    10 1
   45    45    18 1
   46    45    40 1
   47    46    19 1
   48    46    41 1
   49    47    14 1
   50    47    16 1
   51    47    42 1
   52    48    38 1
   53    49    48 1
   54    50    49 1
   55    51    50 1
   56    52    51 1
   57    53    51 1
   58    54    53 1
   59    55    54 1
   60    56    55 1
   61    57    56 1
   62    58    56 1
   63    59    58 1
   64    60    59 1
   65    61    60 1
   66    62    61 1
   67    63    61 1
   68    64    27 1
   69    64    46 1
   70    65     5 1
   71    65    10 1
   72    65    64 1
   73    65    14 1
   74    66    23 1
   75    67    23 1
   76    68    23 1
   77    69    22 1
   78    70    22 1
   79    71    22 1
   80    72    21 1
   81    73    21 1
   82    74    21 1
   83    75    20 1
   84    76    20 1
   85    77    20 1
   86    78    15 1
   87    79    15 1
   88    80    15 1
   89    81     8 1
   90    82     8 1
   91    83     8 1
   92    84     7 1
   93    85     7 1
   94    86     6 1
   95    87     6 1
   96    88     3 1
   97    89     3 1
   98    90     1 1
   99    91     1 1
  100    92    63 1
  101    93    63 1
  102    94    63 1
  103    95    62 1
  104    96    62 1
  105    97    62 1
  106    98    60 1
  107    99    60 1
  108   100    59 1
  109   101    59 1
  110   102    58 1
  111   103    58 1
  112   104    57 1
  113   105    57 1
  114   106    57 1
  115   107    55 1
  116   108    55 1
  117   109    54 1
  118   110    54 1
  119   111    53 1
  120   112    53 1
  121   113    19 1
  122   114    18 1
  123   115    17 1
  124   116     9 1
  125   117     2 1
  126   118    52 1
  127   119    52 1
  128   120    52 1
  129   121    51 1
  130   122    50 1
  131   123    50 1
  132   124    49 1
  133   125    49 1
  134   126    48 1
  135   127    48 1
  136   128    43 1
  137   129    43 1
  138   130    43 1
  139   131    39 1
  140   132    32 1
  141   133    31 1
  142   134    61 1
  143   135    56 1
  144   136    24 1
  145   137    24 1
  146   139   138 1
  147   140   139 1
  148   141   140 1
  149   142   140 1
  150   143   142 1
  151   144   138 1
  152   144   143 1
  153   145   144 1
  154   146   145 1
  155   147   146 1
  156   148   147 1
  157   149   148 1
  158   150   149 1
  159   151   150 1
  160   152   151 1
  161   153   152 1
  162   154   138 1
  163   155   138 1
  164   156   143 1
  165   157   147 1
  166   158   151 1
  167   160   159 1
  168   161   160 1
  169   162   161 1
  170   163   161 1
  171   164   163 1
  172   165   159 1
  173   165   164 1
  174   166   165 1
  175   167   166 1
  176   168   167 1
  177   169   168 1
  178   170   169 1
  179   171   170 1
  180   172   171 1
  181   173   172 1
  182   174   153 1
  183   174   173 1
  184   175   159 1
  185   176   159 1
  186   177   164 1
  187   178   168 1
  188   179   172 1
  189   180   179 1
  190   181   179 1
  191   182   179 1
  192   183   178 1
  193   184   178 1
  194   185   178 1
  195   186   177 1
  196   187   177 1
  197   188   177 1
  198   189   176 1
  199   190   176 1
  200   191   176 1
  201   192   175 1
  202   193   175 1
  203   194   175 1
  204   195   160 1
  205   196   160 1
  206   197   158 1
  207   198   158 1
  208   199   158 1
  209   200   157 1
  210   201   157 1
  211   202   157 1
  212   203   156 1
  213   204   156 1
  214   205   156 1
  215   206   155 1
  216   207   155 1
  217   208   155 1
  218   209   154 1
  219   210   154 1
  220   211   154 1
  221   212   141 1
  222   213   146 1
  223   214   145 1
  224   215   142 1
  225   216   142 1
  226   217   174 1
  227   218   173 1
  228   219   171 1
  229   220   170 1
  230   221   169 1
  231   222   140 1
  232   223   167 1
  233   224   166 1
  234   225   165 1
  235   226   163 1
  236   227   161 1
  237   228   139 1
  238   229   139 1
  239   230   153 1
  240   231   152 1
  241   232   150 1
  242   233   149 1
  243   234   148 1
  244   235   162 1
  245   65    153 1
  246   65    174 1
@<TRIPOS>SUBSTRUCTURE
      1 CLA               1 ****               0 ****  **** 
      2 LUT             138 ****               0 ****  **** 
