@<TRIPOS>MOLECULE
Cpptraj generated mol2 file.
  235   246     2     0     0
SMALL
USER_CHARGES


@<TRIPOS>ATOM
      1 CAA        79.3897   58.9080   33.7572 a2         1 CLA     -0.055900
      2 CAB        79.6543   61.6725   43.0580 c8         1 CLA     -0.148500
      3 CAC        72.3066   58.5089   42.2286 a2         1 CLA     -0.012600
      4 CAD        74.8688   56.7708   34.4699 ck         1 CLA      0.398800
      5 NA         78.3722   58.9166   37.1937 ns         1 CLA     -0.225500
      6 CBA        80.6958   58.7606   32.9574 a2         1 CLA     -0.135000
      7 CBB        80.7648   61.5953   43.8243 c0         1 CLA     -0.395200
      8 CBC        71.9513   56.9523   42.2377 a3         1 CLA     -0.037700
      9 CBD        76.4506   57.0807   34.2718 a1         1 CLA     -0.053900
     10 NB         78.4618   60.0596   39.9822 nm         1 CLA     -0.295700
     11 OBD        74.1787   56.2895   33.5892 o2         1 CLA     -0.494600
     12 CGA        81.0280   57.4858   32.3157 c4         1 CLA      0.827000
     13 CGD        77.2491   55.8247   33.7757 c4         1 CLA      0.655300
     14 ND         75.5238   58.0378   37.6769 nm         1 CLA     -0.291600
     15 CED        76.9877   53.4842   33.4653 a3         1 CLA      0.005400
     16 CHA        76.9203   57.6482   35.6144 cs         1 CLA     -0.123800
     17 CHB        80.2109   60.1323   38.3192 aa         1 CLA     -0.291900
     18 CHC        77.1105   60.3686   41.9529 aa         1 CLA     -0.090400
     19 CHD        73.6120   58.1005   39.2004 aa         1 CLA     -0.052000
     20 CMA        81.7286   58.0936   36.5107 a3         1 CLA     -0.230700
     21 CMB        81.8190   61.6058   40.5246 a3         1 CLA     -0.180800
     22 CMC        74.6983   59.8902   43.9323 a3         1 CLA     -0.134000
     23 CMD        72.0045   57.0950   36.6874 a3         1 CLA     -0.141100
     24 C1         81.6132   55.3037   32.8296 a2         1 CLA      0.023000
     25 C1A        78.2135   58.1934   36.0005 ac         1 CLA     -0.015100
     26 C1B        79.7052   60.4483   39.5630 cr         1 CLA      0.054700
     27 C1C        75.8855   59.7190   41.5939 cn         1 CLA     -0.005600
     28 C1D        74.1615   57.8752   37.8915 ap         1 CLA     -0.047300
     29 O1A        80.5768   57.0979   31.2193 o2         1 CLA     -0.610800
     30 O1D        78.1531   55.8654   33.0173 o2         1 CLA     -0.558200
     31 C2         82.0577   54.5177   34.0640 c8         1 CLA     -0.325100
     32 C2A        79.4878   58.2711   35.1675 a1         1 CLA      0.098600
     33 C2B        80.4096   61.0723   40.6180 cb         1 CLA      0.088500
     34 C2C        74.7790   59.5284   42.4936 cb         1 CLA      0.053700
     35 C2D        73.4635   57.3964   36.6991 cb         1 CLA      0.058900
     36 O2A        81.6947   56.6968   33.1969 o1         1 CLA     -0.437200
     37 O2D        76.6626   54.6790   34.2266 o1         1 CLA     -0.357600
     38 C3         82.8531   53.4490   34.1104 c5         1 CLA      0.031200
     39 C3A        80.4616   58.9831   36.1378 a1         1 CLA      0.166800
     40 C3B        79.4938   61.1432   41.7124 cb         1 CLA      0.035000
     41 C3C        73.7213   58.8661   41.6998 cb         1 CLA     -0.089900
     42 C3D        74.5415   57.2444   35.7826 cb         1 CLA     -0.035900
     43 C4         82.1820   52.0777   34.0524 a3         1 CLA     -0.053300
     44 C4A        79.6328   59.3938   37.2714 ac         1 CLA      0.001800
     45 C4B        78.2801   60.5483   41.1930 cn         1 CLA     -0.020900
     46 C4C        74.2611   58.6650   40.3410 cr         1 CLA     -0.044400
     47 C4D        75.7559   57.7153   36.4190 c6         1 CLA     -0.046000
     48 C5         84.3856   53.4211   34.2445 a2         1 CLA     -0.070400
     49 C6         85.1302   54.6903   34.7483 a2         1 CLA      0.043900
     50 C7         84.8678   54.8832   36.2382 a2         1 CLA     -0.150000
     51 C8         85.0412   56.3141   36.8266 a1         1 CLA      0.064200
     52 C9         86.1852   57.2052   36.2530 a3         1 CLA     -0.259300
     53 C10        85.1138   56.2411   38.3394 a2         1 CLA     -0.071900
     54 C11        84.9388   57.5367   39.1357 a2         1 CLA      0.014500
     55 C12        85.2901   57.2803   40.6343 a2         1 CLA     -0.112100
     56 C13        85.3019   58.5314   41.5116 a1         1 CLA      0.089200
     57 C14        86.6564   59.3354   41.3773 a3         1 CLA     -0.239100
     58 C15        84.9007   58.2934   43.0068 a2         1 CLA     -0.102200
     59 C16        83.5032   57.6762   43.1785 a2         1 CLA      0.023900
     60 C17        82.9278   57.9095   44.5864 a2         1 CLA     -0.105700
     61 C18        83.9205   57.4389   45.7133 a1         1 CLA      0.206800
     62 C19        83.0338   57.6449   47.0392 a3         1 CLA     -0.280100
     63 C20        84.2847   55.9956   45.6956 a3         1 CLA     -0.280100
     64 NC         75.5930   59.1257   40.3459 nx         1 CLA     -0.309200
     65 MG         76.9074   59.0787   38.7082 mg         1 CLA      0.895000
     66 HMD3       72.0014   56.2514   37.4145 dc         1 CLA      0.064300
     67 HMD2       71.4538   57.8013   37.2509 dc         1 CLA      0.064300
     68 HMD1       71.4617   57.0058   35.7648 dc         1 CLA      0.064300
     69 HMC3       75.1672   60.9086   43.9633 dc         1 CLA      0.052100
     70 HMC2       73.6915   59.8583   44.2570 dc         1 CLA      0.052100
     71 HMC1       75.3518   59.2191   44.5136 dc         1 CLA      0.052100
     72 HMB3       82.4037   60.8321   40.1464 dc         1 CLA      0.063600
     73 HMB2       81.8825   62.5415   40.0084 dc         1 CLA      0.063600
     74 HMB1       82.0450   61.9122   41.5735 dc         1 CLA      0.063600
     75 HMA3       82.2294   57.7560   35.5197 dc         1 CLA      0.058300
     76 HMA2       82.5515   58.6824   36.9107 dc         1 CLA      0.058300
     77 HMA1       81.4621   57.2962   37.1212 dc         1 CLA      0.058300
     78 HED3       76.8067   53.6603   32.4146 dc         1 CLA      0.079300
     79 HED2       78.0485   53.2108   33.6122 dc         1 CLA      0.079300
     80 HED1       76.2413   52.7231   33.7628 dc         1 CLA      0.079300
     81 HBC3       71.9499   56.7655   41.1797 dc         1 CLA      0.016300
     82 HBC2       72.7364   56.3711   42.7857 dc         1 CLA      0.016300
     83 HBC1       70.9736   56.6670   42.6181 dc         1 CLA      0.016300
     84 HBB2       80.7149   62.0196   44.8833 da         1 CLA      0.183000
     85 HBB1       81.7925   61.2035   43.5248 da         1 CLA      0.183000
     86 HBA2       80.7615   59.5299   32.1697 dc         1 CLA      0.029400
     87 HBA1       81.5865   59.0972   33.5351 dc         1 CLA      0.029400
     88 HAC2       72.1271   58.9361   43.1990 dc         1 CLA      0.029300
     89 HAC1       71.6031   58.8827   41.4766 dc         1 CLA      0.029300
     90 HAA2       78.5642   58.3765   33.1688 dc         1 CLA      0.028700
     91 HAA1       79.1242   59.9167   33.9280 dc         1 CLA      0.028700
     92 H203       84.9784   55.7816   46.5347 dc         1 CLA      0.065600
     93 H202       83.4224   55.3403   45.8762 dc         1 CLA      0.065600
     94 H201       84.8306   55.6322   44.8089 dc         1 CLA      0.065600
     95 H193       83.5603   57.1268   47.8373 dc         1 CLA      0.065600
     96 H192       82.9216   58.6743   47.3578 dc         1 CLA      0.065600
     97 H191       82.0254   57.2594   46.8896 dc         1 CLA      0.065600
     98 H172       82.8150   58.9512   44.5758 dc         1 CLA      0.027600
     99 H171       81.9088   57.4293   44.5806 dc         1 CLA      0.027600
    100 H162       82.8845   58.0198   42.3883 dc         1 CLA      0.002900
    101 H161       83.5935   56.6611   42.9584 dc         1 CLA      0.002900
    102 H152       85.5018   57.6231   43.6456 dc         1 CLA      0.029100
    103 H151       84.7835   59.3172   43.4187 dc         1 CLA      0.029100
    104 H143       86.7800   59.6301   40.3501 dc         1 CLA      0.063600
    105 H142       86.6601   60.1852   42.0291 dc         1 CLA      0.063600
    106 H141       87.5416   58.6263   41.5530 dc         1 CLA      0.063600
    107 H122       84.5308   56.6085   41.0250 dc         1 CLA      0.032500
    108 H121       86.2567   56.8158   40.6332 dc         1 CLA      0.032500
    109 H112       85.7004   58.3223   38.8612 dc         1 CLA      0.006600
    110 H111       83.8518   57.8577   39.0721 dc         1 CLA      0.006600
    111 H102       84.3346   55.5314   38.6169 dc         1 CLA      0.024100
    112 H101       86.1420   55.8163   38.5824 dc         1 CLA      0.024100
    113 HHD        72.6201   57.7639   39.3554 da         1 CLA      0.174300
    114 HHC        77.1126   60.8359   42.9808 da         1 CLA      0.136800
    115 HHB        81.2728   60.5246   38.2178 da         1 CLA      0.138300
    116 HBD        76.4784   57.8265   33.4178 dc         1 CLA      0.107700
    117 HAB        78.7190   62.0798   43.4973 da         1 CLA      0.155200
    118 H93        87.0090   56.6308   36.5310 dc         1 CLA      0.069500
    119 H92        86.0641   57.2586   35.1429 dc         1 CLA      0.069500
    120 H91        86.0342   58.2250   36.6369 dc         1 CLA      0.069500
    121 H8         84.1148   56.8526   36.6269 dc         1 CLA      0.029300
    122 H72        83.8262   54.5822   36.4703 dc         1 CLA      0.044400
    123 H71        85.5399   54.1529   36.7500 dc         1 CLA      0.044400
    124 H62        86.1926   54.7902   34.5652 dc         1 CLA      0.015600
    125 H61        84.6115   55.5237   34.2858 dc         1 CLA      0.015600
    126 H52        84.6841   52.6418   34.8192 dc         1 CLA      0.033200
    127 H51        84.7540   53.2616   33.2432 dc         1 CLA      0.033200
    128 H43        81.1027   52.2066   34.0046 dc         1 CLA      0.037000
    129 H42        82.6340   51.4900   33.2440 dc         1 CLA      0.037000
    130 H41        82.4467   51.4717   34.9201 dc         1 CLA      0.037000
    131 H3A        80.9329   59.8528   35.6327 dc         1 CLA      0.041100
    132 H2A        79.9199   57.2537   34.9939 dc         1 CLA      0.083100
    133 H2         81.8225   54.8301   35.1302 da         1 CLA      0.180900
    134 H18        84.7597   58.1280   45.8570 dc         1 CLA     -0.003900
    135 H13        84.5277   59.2038   41.1862 dc         1 CLA      0.019700
    136 H12        80.5784   54.9613   32.6180 dc         1 CLA      0.120400
    137 H11        82.3902   55.0707   32.0885 dc         1 CLA      0.120400
    138 C1         69.1917   61.0120   49.7676 Z1         2 LUT      0.509236
    139 C2         68.6660   61.7370   51.0266 Z2         2 LUT     -0.434695
    140 C3         67.2256   62.1244   51.0061 Z3         2 LUT      0.437453
    141 O3         66.9648   62.9633   52.1607 S1         2 LUT     -0.547129
    142 C4         66.9324   62.9989   49.7605 Z4         2 LUT     -0.468603
    143 C5         67.6384   62.5330   48.4392 Z5         2 LUT      0.279246
    144 C6         68.6084   61.6164   48.4190 Z6         2 LUT     -0.305473
    145 C7         69.4092   61.2446   47.1742 Z7         2 LUT      0.069402
    146 C8         70.2859   61.9480   46.3906 Z8         2 LUT     -0.191631
    147 C9         70.8094   61.6985   45.1179 Z9         2 LUT      0.196698
    148 C10        71.8546   62.4472   44.6391 Y1         2 LUT     -0.208611
    149 C11        72.5784   62.4606   43.3833 Y2         2 LUT      0.030784
    150 C12        73.5145   63.4520   42.9978 Y3         2 LUT     -0.220316
    151 C13        74.3891   63.3343   41.8269 Y4         2 LUT      0.215937
    152 C14        75.5874   64.0047   41.7974 Y5         2 LUT     -0.185793
    153 C15        76.6383   63.9634   40.8024 Y6         2 LUT     -0.057835
    154 C16        68.6652   59.5730   49.9887 Y7         2 LUT     -0.405615
    155 C17        70.7617   60.8940   49.7962 Y7         2 LUT     -0.405615
    156 C18        67.2761   63.2926   47.1989 Y9         2 LUT     -0.369639
    157 C19        70.2814   60.5817   44.2341 W1         2 LUT     -0.333362
    158 C20        73.8568   62.7164   40.5446 W2         2 LUT     -0.323439
    159 C21        88.6532   66.2637   35.4572 Z1         2 LUT      0.406104
    160 C22        89.2471   65.5343   34.2865 Z2         2 LUT     -0.404965
    161 C23        89.2746   66.2607   32.9858 Z3         2 LUT      0.391255
    162 O23        89.6663   65.3810   31.9215 S1         2 LUT     -0.528210
    163 C24        87.9287   66.9175   32.7292 W6         2 LUT     -0.258361
    164 C25        87.0188   67.2021   33.6824 Z5         2 LUT      0.133546
    165 C26        87.1337   66.5258   35.0258 W8         2 LUT     -0.147008
    166 C27        86.3215   67.1676   36.0884 Z7         2 LUT      0.023843
    167 C28        85.0849   66.6876   36.3929 Z8         2 LUT     -0.216987
    168 C29        84.2122   66.9983   37.5104 Z9         2 LUT      0.206524
    169 C30        83.1694   66.1194   37.7198 Y1         2 LUT     -0.215556
    170 C31        82.1606   66.3008   38.7954 Y2         2 LUT      0.025142
    171 C32        81.0564   65.5499   39.0676 Y3         2 LUT     -0.212209
    172 C33        80.0149   65.6241   40.1404 Y4         2 LUT      0.240937
    173 C34        78.9059   64.7707   40.1066 Y5         2 LUT     -0.218862
    174 C35        77.7872   64.6746   41.0235 Y6         2 LUT     -0.023547
    175 C36        89.6404   67.4182   35.7751 Y7         2 LUT     -0.393485
    176 C37        88.8279   65.2874   36.5945 Y7         2 LUT     -0.393485
    177 C38        85.7936   67.9373   33.2784 Y9         2 LUT     -0.387526
    178 C39        84.5741   68.0726   38.4529 W1         2 LUT     -0.322618
    179 C40        80.3761   66.6658   41.2200 W2         2 LUT     -0.358472
    180 H403       80.6015   67.6634   40.9232 R7         2 LUT      0.097720
    181 H402       79.5208   66.8947   41.9104 R7         2 LUT      0.097720
    182 H401       81.1831   66.3706   41.8120 R7         2 LUT      0.097720
    183 H393       84.6744   69.1157   37.9534 R4         2 LUT      0.082505
    184 H392       84.0882   68.2560   39.3731 R4         2 LUT      0.082505
    185 H391       85.5849   67.7952   38.7200 R4         2 LUT      0.082505
    186 H383       85.4489   68.7189   34.0476 R1         2 LUT      0.104030
    187 H382       85.8801   68.5263   32.3071 R1         2 LUT      0.104030
    188 H381       85.0200   67.2475   33.0326 R1         2 LUT      0.104030
    189 H373       89.8484   65.0388   36.8125 T4         2 LUT      0.089537
    190 H372       88.4691   65.6092   37.5408 T4         2 LUT      0.089537
    191 H371       88.3840   64.2924   36.4130 T4         2 LUT      0.089537
    192 H363       89.2692   67.9227   36.6411 T4         2 LUT      0.089537
    193 H362       90.6421   67.0504   35.9508 T4         2 LUT      0.089537
    194 H361       89.7370   68.1422   34.9309 T4         2 LUT      0.089537
    195 H222       90.3103   65.3934   34.5986 U2         2 LUT      0.127376
    196 H221       88.7148   64.5639   34.1282 U2         2 LUT      0.127376
    197 H203       74.5153   62.7398   39.6888 R7         2 LUT      0.087068
    198 H202       73.7673   61.6251   40.7393 R7         2 LUT      0.087068
    199 H201       72.8635   63.0786   40.1599 R7         2 LUT      0.087068
    200 H193       69.1861   60.6343   44.1077 R4         2 LUT      0.089716
    201 H192       70.6458   60.6646   43.2451 R4         2 LUT      0.089716
    202 H191       70.4560   59.5597   44.5563 R4         2 LUT      0.089716
    203 H183       67.2591   62.7252   46.2944 R1         2 LUT      0.094572
    204 H182       66.3706   63.7569   47.2962 R1         2 LUT      0.094572
    205 H181       68.0459   64.0017   47.1627 R1         2 LUT      0.094572
    206 H173       71.1620   60.2542   50.6519 T4         2 LUT      0.093752
    207 H172       71.0372   60.3193   48.9511 T4         2 LUT      0.093752
    208 H171       71.3118   61.8543   49.7904 T4         2 LUT      0.093752
    209 H163       67.6265   59.6151   49.9718 T4         2 LUT      0.093752
    210 H162       68.9903   58.9278   49.1520 T4         2 LUT      0.093752
    211 H161       69.0467   59.0280   50.8599 T4         2 LUT      0.093752
    212 HO3        66.3018   62.6933   52.7414 Q1         2 LUT      0.300121
    213 H8         70.5148   62.9076   46.7850 U7         2 LUT      0.080784
    214 H7         69.0155   60.2871   46.7993 U6         2 LUT      0.042190
    215 H42        65.8398   62.9501   49.4640 U5         2 LUT      0.145166
    216 H41        67.2105   64.0540   49.9882 U5         2 LUT      0.145166
    217 H35        77.6764   65.2177   41.9486 T3         2 LUT      0.077919
    218 H34        78.8456   64.0914   39.3350 T2         2 LUT      0.073626
    219 H32        80.8232   64.7136   38.4388 T1         2 LUT      0.092510
    220 H31        82.2501   67.0797   39.5349 U9         2 LUT      0.070048
    221 H30        83.0986   65.2617   37.0842 U8         2 LUT      0.085442
    222 H3         66.5487   61.2294   50.9783 U3         2 LUT     -0.031596
    223 H28        84.6892   65.8643   35.8113 U7         2 LUT      0.084728
    224 H27        86.6063   67.8860   36.7844 U6         2 LUT      0.087291
    225 H26        86.6006   65.5814   34.9010 Q6         2 LUT      0.075325
    226 H24        87.7155   67.2899   31.7318 Q5         2 LUT      0.094482
    227 H23        89.9973   67.0948   32.9997 U3         2 LUT     -0.024869
    228 H22        68.9230   61.1589   51.9532 U2         2 LUT      0.127376
    229 H21        69.2312   62.6619   51.2421 U2         2 LUT      0.127376
    230 H15        76.6351   63.2621   39.9885 T3         2 LUT      0.093200
    231 H14        75.7482   64.7032   42.6577 T2         2 LUT      0.068865
    232 H12        73.7058   64.1055   43.8627 T1         2 LUT      0.095507
    233 H11        72.4454   61.6518   42.6617 U9         2 LUT      0.068930
    234 H10        72.1317   63.2529   45.2155 U8         2 LUT      0.083911
    235 H1         89.5457   65.8182   31.0590 Q1         2 LUT      0.297311
@<TRIPOS>BOND
    1     6     1 1
    2     7     2 1
    3     8     3 1
    4     9     4 1
    5    11     4 1
    6    12     6 1
    7    13     9 1
    8    16     9 1
    9    25     5 1
   10    25    16 1
   11    26    10 1
   12    26    17 1
   13    27    18 1
   14    28    14 1
   15    28    19 1
   16    29    12 1
   17    30    13 1
   18    31    24 1
   19    32     1 1
   20    32    25 1
   21    33    21 1
   22    33    26 1
   23    34    22 1
   24    34    27 1
   25    35    23 1
   26    35    28 1
   27    36    12 1
   28    36    24 1
   29    37    13 1
   30    37    15 1
   31    38    31 1
   32    39    20 1
   33    39    32 1
   34    40     2 1
   35    40    33 1
   36    41     3 1
   37    41    34 1
   38    42     4 1
   39    42    35 1
   40    43    38 1
   41    44     5 1
   42    44    17 1
   43    44    39 1
   44    45    10 1
   45    45    18 1
   46    45    40 1
   47    46    19 1
   48    46    41 1
   49    47    14 1
   50    47    16 1
   51    47    42 1
   52    48    38 1
   53    49    48 1
   54    50    49 1
   55    51    50 1
   56    52    51 1
   57    53    51 1
   58    54    53 1
   59    55    54 1
   60    56    55 1
   61    57    56 1
   62    58    56 1
   63    59    58 1
   64    60    59 1
   65    61    60 1
   66    62    61 1
   67    63    61 1
   68    64    27 1
   69    64    46 1
   70    65     5 1
   71    65    10 1
   72    65    64 1
   73    65    14 1
   74    66    23 1
   75    67    23 1
   76    68    23 1
   77    69    22 1
   78    70    22 1
   79    71    22 1
   80    72    21 1
   81    73    21 1
   82    74    21 1
   83    75    20 1
   84    76    20 1
   85    77    20 1
   86    78    15 1
   87    79    15 1
   88    80    15 1
   89    81     8 1
   90    82     8 1
   91    83     8 1
   92    84     7 1
   93    85     7 1
   94    86     6 1
   95    87     6 1
   96    88     3 1
   97    89     3 1
   98    90     1 1
   99    91     1 1
  100    92    63 1
  101    93    63 1
  102    94    63 1
  103    95    62 1
  104    96    62 1
  105    97    62 1
  106    98    60 1
  107    99    60 1
  108   100    59 1
  109   101    59 1
  110   102    58 1
  111   103    58 1
  112   104    57 1
  113   105    57 1
  114   106    57 1
  115   107    55 1
  116   108    55 1
  117   109    54 1
  118   110    54 1
  119   111    53 1
  120   112    53 1
  121   113    19 1
  122   114    18 1
  123   115    17 1
  124   116     9 1
  125   117     2 1
  126   118    52 1
  127   119    52 1
  128   120    52 1
  129   121    51 1
  130   122    50 1
  131   123    50 1
  132   124    49 1
  133   125    49 1
  134   126    48 1
  135   127    48 1
  136   128    43 1
  137   129    43 1
  138   130    43 1
  139   131    39 1
  140   132    32 1
  141   133    31 1
  142   134    61 1
  143   135    56 1
  144   136    24 1
  145   137    24 1
  146   139   138 1
  147   140   139 1
  148   141   140 1
  149   142   140 1
  150   143   142 1
  151   144   138 1
  152   144   143 1
  153   145   144 1
  154   146   145 1
  155   147   146 1
  156   148   147 1
  157   149   148 1
  158   150   149 1
  159   151   150 1
  160   152   151 1
  161   153   152 1
  162   154   138 1
  163   155   138 1
  164   156   143 1
  165   157   147 1
  166   158   151 1
  167   160   159 1
  168   161   160 1
  169   162   161 1
  170   163   161 1
  171   164   163 1
  172   165   159 1
  173   165   164 1
  174   166   165 1
  175   167   166 1
  176   168   167 1
  177   169   168 1
  178   170   169 1
  179   171   170 1
  180   172   171 1
  181   173   172 1
  182   174   153 1
  183   174   173 1
  184   175   159 1
  185   176   159 1
  186   177   164 1
  187   178   168 1
  188   179   172 1
  189   180   179 1
  190   181   179 1
  191   182   179 1
  192   183   178 1
  193   184   178 1
  194   185   178 1
  195   186   177 1
  196   187   177 1
  197   188   177 1
  198   189   176 1
  199   190   176 1
  200   191   176 1
  201   192   175 1
  202   193   175 1
  203   194   175 1
  204   195   160 1
  205   196   160 1
  206   197   158 1
  207   198   158 1
  208   199   158 1
  209   200   157 1
  210   201   157 1
  211   202   157 1
  212   203   156 1
  213   204   156 1
  214   205   156 1
  215   206   155 1
  216   207   155 1
  217   208   155 1
  218   209   154 1
  219   210   154 1
  220   211   154 1
  221   212   141 1
  222   213   146 1
  223   214   145 1
  224   215   142 1
  225   216   142 1
  226   217   174 1
  227   218   173 1
  228   219   171 1
  229   220   170 1
  230   221   169 1
  231   222   140 1
  232   223   167 1
  233   224   166 1
  234   225   165 1
  235   226   163 1
  236   227   161 1
  237   228   139 1
  238   229   139 1
  239   230   153 1
  240   231   152 1
  241   232   150 1
  242   233   149 1
  243   234   148 1
  244   235   162 1
  245   65    153 1
  246   65    174 1
@<TRIPOS>SUBSTRUCTURE
      1 CLA               1 ****               0 ****  **** 
      2 LUT             138 ****               0 ****  **** 
