@<TRIPOS>MOLECULE
Cpptraj generated mol2 file.
  235   246     2     0     0
SMALL
USER_CHARGES


@<TRIPOS>ATOM
      1 CAA        77.9944   57.7341   35.1666 a2         1 CLA     -0.055900
      2 CAB        77.8642   61.7125   44.0998 c8         1 CLA     -0.148500
      3 CAC        70.9827   57.6483   43.5979 a2         1 CLA     -0.012600
      4 CAD        73.6449   55.3995   36.3399 ck         1 CLA      0.398800
      5 NA         76.9110   58.2529   38.5466 ns         1 CLA     -0.225500
      6 CBA        79.3190   57.6820   34.4629 a2         1 CLA     -0.135000
      7 CBB        79.0148   61.6657   44.8130 c0         1 CLA     -0.395200
      8 CBC        71.0511   56.0972   43.6033 a3         1 CLA     -0.037700
      9 CBD        75.1675   55.7563   36.1263 a1         1 CLA     -0.053900
     10 NB         76.7651   59.8261   41.1312 nm         1 CLA     -0.295700
     11 OBD        73.0875   54.5854   35.5612 o2         1 CLA     -0.494600
     12 CGA        79.9755   56.3601   34.1211 c4         1 CLA      0.827000
     13 CGD        76.0851   54.5480   36.3426 c4         1 CLA      0.655300
     14 ND         73.9505   57.6304   39.0526 nm         1 CLA     -0.291600
     15 CED        76.3781   52.6653   37.8068 a3         1 CLA      0.005400
     16 CHA        75.4583   56.9032   37.1130 cs         1 CLA     -0.123800
     17 CHB        78.6295   59.7517   39.4679 aa         1 CLA     -0.291900
     18 CHC        75.4012   60.0101   43.2192 aa         1 CLA     -0.090400
     19 CHD        72.2748   57.3876   40.7643 aa         1 CLA     -0.052000
     20 CMA        80.3199   57.5915   37.9147 a3         1 CLA     -0.230700
     21 CMB        79.9683   61.7238   41.4961 a3         1 CLA     -0.180800
     22 CMC        73.2153   59.5342   45.3074 a3         1 CLA     -0.134000
     23 CMD        70.7659   55.5652   38.3931 a3         1 CLA     -0.141100
     24 C1         81.0242   54.2997   34.7729 a2         1 CLA      0.023000
     25 C1A        76.7441   57.4555   37.4483 ac         1 CLA     -0.015100
     26 C1B        78.0261   60.1838   40.7104 cr         1 CLA      0.054700
     27 C1C        74.2200   59.3691   42.9340 cn         1 CLA     -0.005600
     28 C1D        72.7234   57.0600   39.4443 ap         1 CLA     -0.047300
     29 O1A        80.2086   56.0003   32.9780 o2         1 CLA     -0.610800
     30 O1D        77.1073   54.2634   35.7482 o2         1 CLA     -0.558200
     31 C2         80.8454   53.5008   36.0452 c8         1 CLA     -0.325100
     32 C2A        78.0804   57.3247   36.6523 a1         1 CLA      0.098600
     33 C2B        78.6874   61.0123   41.7343 cb         1 CLA      0.088500
     34 C2C        73.1498   59.0760   43.8381 cb         1 CLA      0.053700
     35 C2D        72.1310   56.2064   38.4500 cb         1 CLA      0.058900
     36 O2A        80.2980   55.5372   35.1921 o1         1 CLA     -0.437200
     37 O2D        75.5982   53.7896   37.3739 o1         1 CLA     -0.357600
     38 C3         81.8554   53.0024   36.8518 c5         1 CLA      0.031200
     39 C3A        79.0377   58.3113   37.3450 a1         1 CLA      0.166800
     40 C3B        77.7009   61.0986   42.7858 cb         1 CLA      0.035000
     41 C3C        72.2490   58.3259   43.1125 cb         1 CLA     -0.089900
     42 C3D        73.2079   56.1064   37.4992 cb         1 CLA     -0.035900
     43 C4         82.4629   51.6853   36.5595 a3         1 CLA     -0.053300
     44 C4A        78.2081   58.7317   38.5276 ac         1 CLA      0.001800
     45 C4B        76.5364   60.2691   42.4237 cn         1 CLA     -0.020900
     46 C4C        72.8032   58.1680   41.7764 cr         1 CLA     -0.044400
     47 C4D        74.2845   56.9558   37.9403 c6         1 CLA     -0.046000
     48 C5         82.3585   53.7001   38.1069 a2         1 CLA     -0.070400
     49 C6         83.3068   54.8892   37.8967 a2         1 CLA      0.043900
     50 C7         83.4229   55.6231   39.2273 a2         1 CLA     -0.150000
     51 C8         84.2702   56.9000   39.3725 a1         1 CLA      0.064200
     52 C9         85.6740   56.8796   38.8134 a3         1 CLA     -0.259300
     53 C10        84.2410   57.4782   40.7749 a2         1 CLA     -0.071900
     54 C11        82.8751   57.9445   41.3345 a2         1 CLA      0.014500
     55 C12        83.0577   58.5815   42.7357 a2         1 CLA     -0.112100
     56 C13        83.7137   57.8083   43.8599 a1         1 CLA      0.089200
     57 C14        83.0665   56.4183   44.1176 a3         1 CLA     -0.239100
     58 C15        83.8232   58.6838   45.1393 a2         1 CLA     -0.102200
     59 C16        82.5797   59.3957   45.5732 a2         1 CLA      0.023900
     60 C17        82.9571   60.3425   46.7306 a2         1 CLA     -0.105700
     61 C18        81.8546   61.3113   47.2458 a1         1 CLA      0.206800
     62 C19        80.7613   60.3373   47.6937 a3         1 CLA     -0.280100
     63 C20        82.3659   62.3144   48.2956 a3         1 CLA     -0.280100
     64 NC         73.9893   58.8765   41.6836 nx         1 CLA     -0.309200
     65 MG         75.3150   58.8404   40.0197 mg         1 CLA      0.895000
     66 HMD3       70.3385   55.6323   39.3678 dc         1 CLA      0.064300
     67 HMD2       70.1036   56.0778   37.6779 dc         1 CLA      0.064300
     68 HMD1       70.8619   54.5615   38.1177 dc         1 CLA      0.064300
     69 HMC3       73.9552   60.2664   45.5197 dc         1 CLA      0.052100
     70 HMC2       72.2747   59.8488   45.7196 dc         1 CLA      0.052100
     71 HMC1       73.5743   58.6508   45.8247 dc         1 CLA      0.052100
     72 HMB3       80.1263   62.4478   42.2446 dc         1 CLA      0.063600
     73 HMB2       80.7516   61.0109   41.5256 dc         1 CLA      0.063600
     74 HMB1       79.8445   62.1660   40.5044 dc         1 CLA      0.063600
     75 HMA3       81.0553   57.2144   37.1611 dc         1 CLA      0.058300
     76 HMA2       80.9058   58.1877   38.6690 dc         1 CLA      0.058300
     77 HMA1       79.9986   56.7327   38.5059 dc         1 CLA      0.058300
     78 HED3       77.4726   52.9553   38.0204 dc         1 CLA      0.079300
     79 HED2       75.8723   52.1996   38.6482 dc         1 CLA      0.079300
     80 HED1       76.3752   51.8612   37.0564 dc         1 CLA      0.079300
     81 HBC3       70.1232   55.6841   43.9639 dc         1 CLA      0.016300
     82 HBC2       71.1954   55.6347   42.6033 dc         1 CLA      0.016300
     83 HBC1       71.8035   55.7785   44.3641 dc         1 CLA      0.016300
     84 HBB2       79.1312   62.0422   45.8407 da         1 CLA      0.183000
     85 HBB1       79.9389   61.2875   44.3293 da         1 CLA      0.183000
     86 HBA2       79.1292   58.3371   33.6730 dc         1 CLA      0.029400
     87 HBA1       80.0382   58.3376   34.9150 dc         1 CLA      0.029400
     88 HAC2       70.8133   58.0050   44.6771 dc         1 CLA      0.029300
     89 HAC1       70.1213   57.8800   42.8962 dc         1 CLA      0.029300
     90 HAA2       77.3331   57.0870   34.6598 dc         1 CLA      0.028700
     91 HAA1       77.5560   58.7815   35.1852 dc         1 CLA      0.028700
     92 H203       81.4913   62.7931   48.7584 dc         1 CLA      0.065600
     93 H202       82.9118   61.7625   49.0417 dc         1 CLA      0.065600
     94 H201       83.0552   63.0300   47.8436 dc         1 CLA      0.065600
     95 H193       79.9122   60.9003   48.1936 dc         1 CLA      0.065600
     96 H192       80.1948   60.0142   46.8145 dc         1 CLA      0.065600
     97 H191       81.0111   59.4943   48.3304 dc         1 CLA      0.065600
     98 H172       83.3424   59.7263   47.5001 dc         1 CLA      0.027600
     99 H171       83.7887   60.9628   46.3610 dc         1 CLA      0.027600
    100 H162       82.0771   60.1046   44.8817 dc         1 CLA      0.002900
    101 H161       81.8470   58.6922   45.8642 dc         1 CLA      0.002900
    102 H152       84.3258   58.1431   45.9573 dc         1 CLA      0.029100
    103 H151       84.6032   59.3161   44.8375 dc         1 CLA      0.029100
    104 H143       82.0241   56.4786   44.2120 dc         1 CLA      0.063600
    105 H142       83.3343   55.7894   43.2737 dc         1 CLA      0.063600
    106 H141       83.3950   55.8619   45.0296 dc         1 CLA      0.063600
    107 H122       83.6917   59.4581   42.6714 dc         1 CLA      0.032500
    108 H121       82.0544   58.9392   42.9575 dc         1 CLA      0.032500
    109 H112       82.4155   58.6818   40.6579 dc         1 CLA      0.006600
    110 H111       82.2463   57.0636   41.5100 dc         1 CLA      0.006600
    111 H102       84.7226   56.6927   41.3590 dc         1 CLA      0.024100
    112 H101       84.8160   58.3775   40.6818 dc         1 CLA      0.024100
    113 HHD        71.2932   56.9590   41.0935 da         1 CLA      0.174300
    114 HHC        75.6434   60.1920   44.2820 da         1 CLA      0.136800
    115 HHB        79.6498   60.1810   39.3364 da         1 CLA      0.138300
    116 HBD        75.2690   56.2096   35.1621 dc         1 CLA      0.107700
    117 HAB        76.9334   61.9316   44.6021 da         1 CLA      0.155200
    118 H93        86.4382   56.4138   39.4386 dc         1 CLA      0.069500
    119 H92        85.6779   56.5247   37.7314 dc         1 CLA      0.069500
    120 H91        85.8646   57.9354   38.7545 dc         1 CLA      0.069500
    121 H8         83.6792   57.6528   38.8308 dc         1 CLA      0.029300
    122 H72        82.4008   55.8840   39.5652 dc         1 CLA      0.044400
    123 H71        83.6750   54.8483   39.9368 dc         1 CLA      0.044400
    124 H62        84.1893   54.4122   37.6570 dc         1 CLA      0.015600
    125 H61        82.9163   55.6524   37.1310 dc         1 CLA      0.015600
    126 H52        81.4912   54.2173   38.5119 dc         1 CLA      0.033200
    127 H51        82.7696   53.0533   38.8997 dc         1 CLA      0.033200
    128 H43        82.3890   51.0568   37.4121 dc         1 CLA      0.037000
    129 H42        81.9147   51.3026   35.7386 dc         1 CLA      0.037000
    130 H41        83.5164   51.8265   36.3906 dc         1 CLA      0.037000
    131 H3A        79.2650   59.1991   36.6877 dc         1 CLA      0.041100
    132 H2A        78.4872   56.2602   36.6618 dc         1 CLA      0.083100
    133 H2         79.8335   53.3299   36.2399 da         1 CLA      0.180900
    134 H18        81.3117   61.9230   46.4862 dc         1 CLA     -0.003900
    135 H13        84.6900   57.6267   43.5608 dc         1 CLA      0.019700
    136 H12        80.6567   53.8053   33.8524 dc         1 CLA      0.120400
    137 H11        82.0435   54.5973   34.5929 dc         1 CLA      0.120400
    138 C1         67.4958   61.5196   50.5908 Z1         2 LUT      0.509236
    139 C2         66.0362   61.3198   50.9871 Z2         2 LUT     -0.434695
    140 C3         65.0447   62.4154   51.2901 Z3         2 LUT      0.437453
    141 O3         65.0999   62.7379   52.6904 S1         2 LUT     -0.547129
    142 C4         65.3463   63.6381   50.4902 Z4         2 LUT     -0.468603
    143 C5         66.4242   63.5215   49.3619 Z5         2 LUT      0.279246
    144 C6         67.4308   62.5574   49.4548 Z6         2 LUT     -0.305473
    145 C7         68.0658   62.1338   48.1501 Z7         2 LUT      0.069402
    146 C8         68.9990   62.7450   47.4127 Z8         2 LUT     -0.191631
    147 C9         69.6020   62.1507   46.1972 Z9         2 LUT      0.196698
    148 C10        70.7484   62.7611   45.6340 Y1         2 LUT     -0.208611
    149 C11        71.4901   62.5175   44.3373 Y2         2 LUT      0.030784
    150 C12        72.7024   63.0630   44.1321 Y3         2 LUT     -0.220316
    151 C13        73.4831   62.9603   42.9391 Y4         2 LUT      0.215937
    152 C14        74.7110   63.6034   42.8478 Y5         2 LUT     -0.185793
    153 C15        75.7571   63.6668   41.8539 Y6         2 LUT     -0.057835
    154 C16        68.1505   60.1644   50.1974 Y7         2 LUT     -0.405615
    155 C17        68.2451   62.0607   51.8926 Y7         2 LUT     -0.405615
    156 C18        66.0952   64.3738   48.1764 Y9         2 LUT     -0.369639
    157 C19        68.9308   60.9343   45.5376 W1         2 LUT     -0.333362
    158 C20        72.8100   62.2737   41.6544 W2         2 LUT     -0.323439
    159 C21        87.8091   65.0410   36.5666 Z1         2 LUT      0.406104
    160 C22        88.2525   64.2909   35.3662 Z2         2 LUT     -0.404965
    161 C23        88.1161   64.9891   34.0108 Z3         2 LUT      0.391255
    162 O23        88.3009   63.9891   33.0265 S1         2 LUT     -0.528210
    163 C24        86.8420   65.8079   33.9215 W6         2 LUT     -0.258361
    164 C25        85.9729   66.0066   34.8985 Z5         2 LUT      0.133546
    165 C26        86.2547   65.3942   36.2877 W8         2 LUT     -0.147008
    166 C27        85.5520   66.1522   37.3700 Z7         2 LUT      0.023843
    167 C28        84.2925   65.8596   37.7754 Z8         2 LUT     -0.216987
    168 C29        83.4222   66.3439   38.8632 Z9         2 LUT      0.206524
    169 C30        82.1675   65.7919   39.0777 Y1         2 LUT     -0.215556
    170 C31        81.1872   66.0130   40.1071 Y2         2 LUT      0.025142
    171 C32        79.9848   65.4641   40.1417 Y3         2 LUT     -0.212209
    172 C33        79.1279   65.4357   41.2963 Y4         2 LUT      0.240937
    173 C34        78.0157   64.5970   41.1249 Y5         2 LUT     -0.218862
    174 C35        76.7717   64.5797   41.9786 Y6         2 LUT     -0.023547
    175 C36        88.7096   66.2431   36.8349 Y7         2 LUT     -0.393485
    176 C37        88.0697   63.9746   37.7583 Y7         2 LUT     -0.393485
    177 C38        84.5887   66.6002   34.6574 Y9         2 LUT     -0.387526
    178 C39        83.9679   67.5441   39.6744 W1         2 LUT     -0.322618
    179 C40        79.1134   66.3942   42.4447 W2         2 LUT     -0.358472
    180 H403       80.0666   66.9427   42.6976 R7         2 LUT      0.097720
    181 H402       78.3563   67.1808   42.3987 R7         2 LUT      0.097720
    182 H401       78.8062   65.8141   43.3573 R7         2 LUT      0.097720
    183 H393       84.1498   68.4620   39.0979 R4         2 LUT      0.082505
    184 H392       83.3904   67.7576   40.5921 R4         2 LUT      0.082505
    185 H391       84.9811   67.2750   40.0302 R4         2 LUT      0.082505
    186 H383       84.1813   67.2577   35.5203 R1         2 LUT      0.104030
    187 H382       84.6668   67.2590   33.8065 R1         2 LUT      0.104030
    188 H381       83.8346   65.8742   34.4058 R1         2 LUT      0.104030
    189 H373       88.1464   64.3881   38.7839 T4         2 LUT      0.089537
    190 H372       87.3101   63.2160   37.6742 T4         2 LUT      0.089537
    191 H371       88.9644   63.3208   37.6044 T4         2 LUT      0.089537
    192 H363       88.7412   66.9918   36.0537 T4         2 LUT      0.089537
    193 H362       88.4512   66.6963   37.8264 T4         2 LUT      0.089537
    194 H361       89.7246   65.7760   36.9222 T4         2 LUT      0.089537
    195 H222       89.2988   64.0968   35.4722 U2         2 LUT      0.127376
    196 H221       87.6696   63.3041   35.2242 U2         2 LUT      0.127376
    197 H203       72.0021   62.9331   41.3008 R7         2 LUT      0.087068
    198 H202       73.5740   62.1788   40.7970 R7         2 LUT      0.087068
    199 H201       72.4090   61.2996   41.8435 R7         2 LUT      0.087068
    200 H193       67.8823   60.9038   45.7895 R4         2 LUT      0.089716
    201 H192       68.9158   60.9690   44.4444 R4         2 LUT      0.089716
    202 H191       69.4461   59.9744   45.7803 R4         2 LUT      0.089716
    203 H183       66.8728   65.1154   48.0725 R1         2 LUT      0.094572
    204 H182       66.1761   63.7200   47.2427 R1         2 LUT      0.094572
    205 H181       65.1351   64.9423   48.1634 R1         2 LUT      0.094572
    206 H173       67.6893   62.9081   52.3001 T4         2 LUT      0.093752
    207 H172       68.3223   61.2903   52.6396 T4         2 LUT      0.093752
    208 H171       69.2744   62.3281   51.5679 T4         2 LUT      0.093752
    209 H163       67.6041   59.4955   49.4232 T4         2 LUT      0.093752
    210 H162       69.2195   60.3095   49.9208 T4         2 LUT      0.093752
    211 H161       67.9849   59.4709   51.0131 T4         2 LUT      0.093752
    212 HO3        64.4611   62.1521   53.1640 Q1         2 LUT      0.300121
    213 H8         69.4447   63.6144   47.8035 U7         2 LUT      0.080784
    214 H7         67.7331   61.1482   47.8327 U6         2 LUT      0.042190
    215 H42        64.3781   64.0025   50.0383 U5         2 LUT      0.145166
    216 H41        65.6961   64.3837   51.1360 U5         2 LUT      0.145166
    217 H35        76.6916   65.1261   42.9559 T3         2 LUT      0.077919
    218 H34        77.9101   63.9881   40.3031 T2         2 LUT      0.073626
    219 H32        79.7245   64.7951   39.3352 T1         2 LUT      0.092510
    220 H31        81.3612   66.7874   40.9034 U9         2 LUT      0.070048
    221 H30        81.9816   64.8944   38.4632 U8         2 LUT      0.085442
    222 H3         64.0696   62.1577   50.9805 U3         2 LUT     -0.031596
    223 H28        84.0325   64.9581   37.3201 U7         2 LUT      0.084728
    224 H27        86.1331   66.8475   37.9041 U6         2 LUT      0.087291
    225 H26        85.6775   64.4096   36.1821 Q6         2 LUT      0.075325
    226 H24        86.5648   66.1312   32.8942 Q5         2 LUT      0.094482
    227 H23        88.9230   65.7251   33.8341 U3         2 LUT     -0.024869
    228 H22        65.3996   60.7939   50.2109 U2         2 LUT      0.127376
    229 H21        65.9779   60.6009   51.8431 U2         2 LUT      0.127376
    230 H15        75.8127   63.0754   40.9243 T3         2 LUT      0.093200
    231 H14        75.0183   64.1495   43.7909 T2         2 LUT      0.068865
    232 H12        73.1924   63.6970   44.9269 T1         2 LUT      0.095507
    233 H11        71.1001   61.8406   43.5769 U9         2 LUT      0.068930
    234 H10        71.2090   63.5792   46.1919 U8         2 LUT      0.083911
    235 H1         88.1690   64.3358   32.1141 Q1         2 LUT      0.297311
@<TRIPOS>BOND
    1     6     1 1
    2     7     2 1
    3     8     3 1
    4     9     4 1
    5    11     4 1
    6    12     6 1
    7    13     9 1
    8    16     9 1
    9    25     5 1
   10    25    16 1
   11    26    10 1
   12    26    17 1
   13    27    18 1
   14    28    14 1
   15    28    19 1
   16    29    12 1
   17    30    13 1
   18    31    24 1
   19    32     1 1
   20    32    25 1
   21    33    21 1
   22    33    26 1
   23    34    22 1
   24    34    27 1
   25    35    23 1
   26    35    28 1
   27    36    12 1
   28    36    24 1
   29    37    13 1
   30    37    15 1
   31    38    31 1
   32    39    20 1
   33    39    32 1
   34    40     2 1
   35    40    33 1
   36    41     3 1
   37    41    34 1
   38    42     4 1
   39    42    35 1
   40    43    38 1
   41    44     5 1
   42    44    17 1
   43    44    39 1
   44    45    10 1
   45    45    18 1
   46    45    40 1
   47    46    19 1
   48    46    41 1
   49    47    14 1
   50    47    16 1
   51    47    42 1
   52    48    38 1
   53    49    48 1
   54    50    49 1
   55    51    50 1
   56    52    51 1
   57    53    51 1
   58    54    53 1
   59    55    54 1
   60    56    55 1
   61    57    56 1
   62    58    56 1
   63    59    58 1
   64    60    59 1
   65    61    60 1
   66    62    61 1
   67    63    61 1
   68    64    27 1
   69    64    46 1
   70    65     5 1
   71    65    10 1
   72    65    64 1
   73    65    14 1
   74    66    23 1
   75    67    23 1
   76    68    23 1
   77    69    22 1
   78    70    22 1
   79    71    22 1
   80    72    21 1
   81    73    21 1
   82    74    21 1
   83    75    20 1
   84    76    20 1
   85    77    20 1
   86    78    15 1
   87    79    15 1
   88    80    15 1
   89    81     8 1
   90    82     8 1
   91    83     8 1
   92    84     7 1
   93    85     7 1
   94    86     6 1
   95    87     6 1
   96    88     3 1
   97    89     3 1
   98    90     1 1
   99    91     1 1
  100    92    63 1
  101    93    63 1
  102    94    63 1
  103    95    62 1
  104    96    62 1
  105    97    62 1
  106    98    60 1
  107    99    60 1
  108   100    59 1
  109   101    59 1
  110   102    58 1
  111   103    58 1
  112   104    57 1
  113   105    57 1
  114   106    57 1
  115   107    55 1
  116   108    55 1
  117   109    54 1
  118   110    54 1
  119   111    53 1
  120   112    53 1
  121   113    19 1
  122   114    18 1
  123   115    17 1
  124   116     9 1
  125   117     2 1
  126   118    52 1
  127   119    52 1
  128   120    52 1
  129   121    51 1
  130   122    50 1
  131   123    50 1
  132   124    49 1
  133   125    49 1
  134   126    48 1
  135   127    48 1
  136   128    43 1
  137   129    43 1
  138   130    43 1
  139   131    39 1
  140   132    32 1
  141   133    31 1
  142   134    61 1
  143   135    56 1
  144   136    24 1
  145   137    24 1
  146   139   138 1
  147   140   139 1
  148   141   140 1
  149   142   140 1
  150   143   142 1
  151   144   138 1
  152   144   143 1
  153   145   144 1
  154   146   145 1
  155   147   146 1
  156   148   147 1
  157   149   148 1
  158   150   149 1
  159   151   150 1
  160   152   151 1
  161   153   152 1
  162   154   138 1
  163   155   138 1
  164   156   143 1
  165   157   147 1
  166   158   151 1
  167   160   159 1
  168   161   160 1
  169   162   161 1
  170   163   161 1
  171   164   163 1
  172   165   159 1
  173   165   164 1
  174   166   165 1
  175   167   166 1
  176   168   167 1
  177   169   168 1
  178   170   169 1
  179   171   170 1
  180   172   171 1
  181   173   172 1
  182   174   153 1
  183   174   173 1
  184   175   159 1
  185   176   159 1
  186   177   164 1
  187   178   168 1
  188   179   172 1
  189   180   179 1
  190   181   179 1
  191   182   179 1
  192   183   178 1
  193   184   178 1
  194   185   178 1
  195   186   177 1
  196   187   177 1
  197   188   177 1
  198   189   176 1
  199   190   176 1
  200   191   176 1
  201   192   175 1
  202   193   175 1
  203   194   175 1
  204   195   160 1
  205   196   160 1
  206   197   158 1
  207   198   158 1
  208   199   158 1
  209   200   157 1
  210   201   157 1
  211   202   157 1
  212   203   156 1
  213   204   156 1
  214   205   156 1
  215   206   155 1
  216   207   155 1
  217   208   155 1
  218   209   154 1
  219   210   154 1
  220   211   154 1
  221   212   141 1
  222   213   146 1
  223   214   145 1
  224   215   142 1
  225   216   142 1
  226   217   174 1
  227   218   173 1
  228   219   171 1
  229   220   170 1
  230   221   169 1
  231   222   140 1
  232   223   167 1
  233   224   166 1
  234   225   165 1
  235   226   163 1
  236   227   161 1
  237   228   139 1
  238   229   139 1
  239   230   153 1
  240   231   152 1
  241   232   150 1
  242   233   149 1
  243   234   148 1
  244   235   162 1
  245   65    153 1
  246   65    174 1
@<TRIPOS>SUBSTRUCTURE
      1 CLA               1 ****               0 ****  **** 
      2 LUT             138 ****               0 ****  **** 
