@<TRIPOS>MOLECULE
Cpptraj generated mol2 file.
  235   246     2     0     0
SMALL
USER_CHARGES


@<TRIPOS>ATOM
      1 CAA        77.8367   57.5124   34.9764 a2         1 CLA     -0.055900
      2 CAB        78.5254   61.9336   43.5305 c8         1 CLA     -0.148500
      3 CAC        71.4160   58.1992   43.7879 a2         1 CLA     -0.012600
      4 CAD        73.7705   55.1168   36.6724 ck         1 CLA      0.398800
      5 NA         77.1665   58.2478   38.3567 ns         1 CLA     -0.225500
      6 CBA        79.0702   57.2886   34.1713 a2         1 CLA     -0.135000
      7 CBB        79.6292   61.9804   44.2520 c0         1 CLA     -0.395200
      8 CBC        71.3474   56.6294   43.8487 a3         1 CLA     -0.037700
      9 CBD        75.2801   55.5175   36.3749 a1         1 CLA     -0.053900
     10 NB         77.1767   59.7393   40.8804 nm         1 CLA     -0.295700
     11 OBD        73.1409   54.2581   36.0662 o2         1 CLA     -0.494600
     12 CGA        79.4568   55.7875   33.8636 c4         1 CLA      0.827000
     13 CGD        76.2677   54.3292   36.4831 c4         1 CLA      0.655300
     14 ND         74.2760   57.6253   39.1402 nm         1 CLA     -0.291600
     15 CED        76.9075   52.2080   37.5495 a3         1 CLA      0.005400
     16 CHA        75.6788   56.6923   37.2412 cs         1 CLA     -0.123800
     17 CHB        79.0427   59.2926   39.3464 aa         1 CLA     -0.291900
     18 CHC        76.0064   60.2363   43.0074 aa         1 CLA     -0.090400
     19 CHD        72.4286   57.8016   40.7420 aa         1 CLA     -0.052000
     20 CMA        80.3665   56.9235   37.6527 a3         1 CLA     -0.230700
     21 CMB        80.6616   61.2136   41.2926 a3         1 CLA     -0.180800
     22 CMC        73.8360   60.0171   45.1680 a3         1 CLA     -0.134000
     23 CMD        71.0673   55.8213   38.6309 a3         1 CLA     -0.141100
     24 C1         80.6144   53.8325   34.5728 a2         1 CLA      0.023000
     25 C1A        76.8652   57.3933   37.3381 ac         1 CLA     -0.015100
     26 C1B        78.4909   59.8410   40.5202 cr         1 CLA      0.054700
     27 C1C        74.7539   59.5812   42.7940 cn         1 CLA     -0.005600
     28 C1D        72.9833   57.3400   39.5036 ap         1 CLA     -0.047300
     29 O1A        78.8439   55.1472   32.9942 o2         1 CLA     -0.610800
     30 O1D        77.1416   54.0196   35.6412 o2         1 CLA     -0.558200
     31 C2         81.1179   53.3388   35.8587 c8         1 CLA     -0.325100
     32 C2A        78.0279   57.1847   36.4671 a1         1 CLA      0.098600
     33 C2B        79.2377   60.6490   41.4157 cb         1 CLA      0.088500
     34 C2C        73.7295   59.4282   43.8022 cb         1 CLA      0.053700
     35 C2D        72.4101   56.4314   38.6093 cb         1 CLA      0.058900
     36 O2A        80.3612   55.2956   34.7499 o1         1 CLA     -0.437200
     37 O2D        76.1340   53.4811   37.6165 o1         1 CLA     -0.357600
     38 C3         82.3807   53.1745   36.3065 c5         1 CLA      0.031200
     39 C3A        79.2198   57.8494   37.2516 a1         1 CLA      0.166800
     40 C3B        78.2885   60.9984   42.4530 cb         1 CLA      0.035000
     41 C3C        72.6423   58.7757   43.1634 cb         1 CLA     -0.089900
     42 C3D        73.4427   55.9890   37.7715 cb         1 CLA     -0.035900
     43 C4         83.1252   51.8715   36.0959 a3         1 CLA     -0.053300
     44 C4A        78.4271   58.5420   38.3785 ac         1 CLA      0.001800
     45 C4B        77.0972   60.2620   42.1691 cn         1 CLA     -0.020900
     46 C4C        73.1022   58.4634   41.8130 cr         1 CLA     -0.044400
     47 C4D        74.5503   56.8321   38.0906 c6         1 CLA     -0.046000
     48 C5         82.8752   54.3709   37.1969 a2         1 CLA     -0.070400
     49 C6         84.3632   54.2806   37.5409 a2         1 CLA      0.043900
     50 C7         84.8880   55.3211   38.6692 a2         1 CLA     -0.150000
     51 C8         84.5727   56.8163   38.6054 a1         1 CLA      0.064200
     52 C9         85.5626   57.5973   37.7275 a3         1 CLA     -0.259300
     53 C10        84.6592   57.4170   40.0145 a2         1 CLA     -0.071900
     54 C11        83.4714   57.3417   41.0343 a2         1 CLA      0.014500
     55 C12        83.7037   58.3298   42.1942 a2         1 CLA     -0.112100
     56 C13        85.0214   58.2949   43.0428 a1         1 CLA      0.089200
     57 C14        85.1922   57.0300   43.9188 a3         1 CLA     -0.239100
     58 C15        85.3275   59.6999   43.8440 a2         1 CLA     -0.102200
     59 C16        84.3072   60.0514   44.9630 a2         1 CLA      0.023900
     60 C17        84.3368   61.5062   45.2531 a2         1 CLA     -0.105700
     61 C18        83.7679   61.9633   46.6220 a1         1 CLA      0.206800
     62 C19        83.8740   63.4657   46.9196 a3         1 CLA     -0.280100
     63 C20        82.3598   61.3549   46.9638 a3         1 CLA     -0.280100
     64 NC         74.4531   58.8477   41.6822 nx         1 CLA     -0.309200
     65 MG         75.7205   58.7291   39.9135 mg         1 CLA      0.895000
     66 HMD3       70.9620   54.9239   37.9891 dc         1 CLA      0.064300
     67 HMD2       70.8831   55.5396   39.6437 dc         1 CLA      0.064300
     68 HMD1       70.3319   56.5942   38.3263 dc         1 CLA      0.064300
     69 HMC3       74.7736   59.7247   45.6199 dc         1 CLA      0.052100
     70 HMC2       73.9326   61.0148   45.0167 dc         1 CLA      0.052100
     71 HMC1       73.0136   59.8098   45.9247 dc         1 CLA      0.052100
     72 HMB3       81.3524   60.5118   41.8278 dc         1 CLA      0.063600
     73 HMB2       80.9549   61.4054   40.2028 dc         1 CLA      0.063600
     74 HMB1       80.7123   62.2364   41.8238 dc         1 CLA      0.063600
     75 HMA3       81.0410   57.3713   38.3383 dc         1 CLA      0.058300
     76 HMA2       79.8668   56.1277   38.1958 dc         1 CLA      0.058300
     77 HMA1       80.8390   56.5948   36.7639 dc         1 CLA      0.058300
     78 HED3       76.9632   51.7296   38.5405 dc         1 CLA      0.079300
     79 HED2       76.3222   51.5868   36.9239 dc         1 CLA      0.079300
     80 HED1       77.8953   52.3372   37.1385 dc         1 CLA      0.079300
     81 HBC3       71.3624   56.1837   42.8471 dc         1 CLA      0.016300
     82 HBC2       72.0893   56.2188   44.5744 dc         1 CLA      0.016300
     83 HBC1       70.3543   56.4033   44.1881 dc         1 CLA      0.016300
     84 HBB2       79.6809   62.6577   45.1427 da         1 CLA      0.183000
     85 HBB1       80.4747   61.3759   44.1175 da         1 CLA      0.183000
     86 HBA2       78.8007   57.7479   33.2121 dc         1 CLA      0.029400
     87 HBA1       80.0308   57.6201   34.6245 dc         1 CLA      0.029400
     88 HAC2       71.3493   58.5812   44.8050 dc         1 CLA      0.029300
     89 HAC1       70.6479   58.4495   43.1448 dc         1 CLA      0.029300
     90 HAA2       76.9679   56.9896   34.5501 dc         1 CLA      0.028700
     91 HAA1       77.6674   58.6094   34.9017 dc         1 CLA      0.028700
     92 H203       82.0229   61.7733   47.8972 dc         1 CLA      0.065600
     93 H202       81.6197   61.5212   46.2489 dc         1 CLA      0.065600
     94 H201       82.3758   60.2705   47.2086 dc         1 CLA      0.065600
     95 H193       84.8429   63.8623   46.6765 dc         1 CLA      0.065600
     96 H192       83.1785   63.9531   46.2469 dc         1 CLA      0.065600
     97 H191       83.6198   63.6527   47.9346 dc         1 CLA      0.065600
     98 H172       85.3387   61.7557   45.3170 dc         1 CLA      0.027600
     99 H171       83.8742   62.0785   44.5266 dc         1 CLA      0.027600
    100 H162       83.3610   59.7502   44.5885 dc         1 CLA      0.002900
    101 H161       84.5574   59.3673   45.7946 dc         1 CLA      0.002900
    102 H152       86.2949   59.5888   44.3264 dc         1 CLA      0.029100
    103 H151       85.3517   60.5007   43.1284 dc         1 CLA      0.029100
    104 H143       85.1402   56.2002   43.2003 dc         1 CLA      0.063600
    105 H142       86.0918   56.9278   44.4665 dc         1 CLA      0.063600
    106 H141       84.3998   56.9706   44.6577 dc         1 CLA      0.063600
    107 H122       83.7880   59.2493   41.6579 dc         1 CLA      0.032500
    108 H121       82.7954   58.3878   42.7332 dc         1 CLA      0.032500
    109 H112       82.5425   57.7181   40.4928 dc         1 CLA      0.006600
    110 H111       83.2763   56.3141   41.3870 dc         1 CLA      0.006600
    111 H102       85.6111   57.1546   40.4850 dc         1 CLA      0.024100
    112 H101       84.7045   58.4477   39.7577 dc         1 CLA      0.024100
    113 HHD        71.4269   57.4943   41.0154 da         1 CLA      0.174300
    114 HHC        76.0561   60.8262   43.9707 da         1 CLA      0.136800
    115 HHB        80.1250   59.4017   39.2955 da         1 CLA      0.138300
    116 HBD        75.2970   55.8323   35.3706 dc         1 CLA      0.107700
    117 HAB        77.7290   62.5654   43.8536 da         1 CLA      0.155200
    118 H93        86.4007   58.0758   38.2197 dc         1 CLA      0.069500
    119 H92        85.8959   57.0827   36.8755 dc         1 CLA      0.069500
    120 H91        84.9810   58.4862   37.4745 dc         1 CLA      0.069500
    121 H8         83.6109   56.9355   38.1091 dc         1 CLA      0.029300
    122 H72        84.3336   54.8716   39.5691 dc         1 CLA      0.044400
    123 H71        85.9953   55.1467   38.6969 dc         1 CLA      0.044400
    124 H62        84.6032   53.2946   37.8233 dc         1 CLA      0.015600
    125 H61        84.9244   54.4391   36.6184 dc         1 CLA      0.015600
    126 H52        82.6514   55.3812   36.7521 dc         1 CLA      0.033200
    127 H51        82.4027   54.2934   38.1601 dc         1 CLA      0.033200
    128 H43        83.5707   51.4755   37.0144 dc         1 CLA      0.037000
    129 H42        82.3909   51.1755   35.6531 dc         1 CLA      0.037000
    130 H41        83.8683   52.1348   35.3332 dc         1 CLA      0.037000
    131 H3A        79.6658   58.6657   36.5642 dc         1 CLA      0.041100
    132 H2A        78.2752   56.1668   36.4805 dc         1 CLA      0.083100
    133 H2         80.3718   52.6993   36.4165 da         1 CLA      0.180900
    134 H18        84.4895   61.4684   47.3497 dc         1 CLA     -0.003900
    135 H13        85.8195   58.1741   42.3456 dc         1 CLA      0.019700
    136 H12        79.6807   53.3419   34.4117 dc         1 CLA      0.120400
    137 H11        81.2816   53.6406   33.7305 dc         1 CLA      0.120400
    138 C1         67.6654   62.2030   50.9623 Z1         2 LUT      0.509236
    139 C2         67.6361   63.6004   51.6412 Z2         2 LUT     -0.434695
    140 C3         66.2799   64.2098   51.5596 Z3         2 LUT      0.437453
    141 O3         66.5363   65.5002   52.1776 S1         2 LUT     -0.547129
    142 C4         65.7831   64.4200   50.1283 Z4         2 LUT     -0.468603
    143 C5         66.3922   63.4596   49.0608 Z5         2 LUT      0.279246
    144 C6         67.1828   62.3446   49.4492 Z6         2 LUT     -0.305473
    145 C7         68.0379   61.6290   48.4120 Z7         2 LUT      0.069402
    146 C8         68.6775   62.1370   47.3555 Z8         2 LUT     -0.191631
    147 C9         69.3232   61.6668   46.1582 Z9         2 LUT      0.196698
    148 C10        70.2567   62.4533   45.4866 Y1         2 LUT     -0.208611
    149 C11        71.1190   62.0935   44.4224 Y2         2 LUT      0.030784
    150 C12        72.0233   63.0450   43.9364 Y3         2 LUT     -0.220316
    151 C13        72.9386   62.8605   42.8556 Y4         2 LUT      0.215937
    152 C14        73.9830   63.7864   42.8170 Y5         2 LUT     -0.185793
    153 C15        75.1749   63.7320   41.9884 Y6         2 LUT     -0.057835
    154 C16        66.6529   61.2527   51.6744 Y7         2 LUT     -0.405615
    155 C17        69.1161   61.5337   51.1223 Y7         2 LUT     -0.405615
    156 C18        66.1228   64.0114   47.7512 Y9         2 LUT     -0.369639
    157 C19        68.7955   60.3547   45.6500 W1         2 LUT     -0.333362
    158 C20        72.4739   61.9578   41.6983 W2         2 LUT     -0.323439
    159 C21        86.7126   64.8773   35.7781 Z1         2 LUT      0.406104
    160 C22        87.5527   64.4742   34.5007 Z2         2 LUT     -0.404965
    161 C23        87.4949   65.5320   33.3690 Z3         2 LUT      0.391255
    162 O23        88.1684   64.9791   32.1449 S1         2 LUT     -0.528210
    163 C24        86.1308   66.1427   33.1274 W6         2 LUT     -0.258361
    164 C25        85.1209   66.1077   34.0268 Z5         2 LUT      0.133546
    165 C26        85.3246   65.3301   35.3489 W8         2 LUT     -0.147008
    166 C27        84.5840   65.9763   36.4876 Z7         2 LUT      0.023843
    167 C28        83.4214   65.4788   37.0823 Z8         2 LUT     -0.216987
    168 C29        82.5984   66.0254   38.1852 Z9         2 LUT      0.206524
    169 C30        81.6404   65.2198   38.7422 Y1         2 LUT     -0.215556
    170 C31        80.7413   65.4732   39.8294 Y2         2 LUT      0.025142
    171 C32        79.5804   64.8076   40.1316 Y3         2 LUT     -0.212209
    172 C33        78.6182   64.9925   41.2275 Y4         2 LUT      0.240937
    173 C34        77.4292   64.3926   41.3279 Y5         2 LUT     -0.218862
    174 C35        76.2213   64.5758   42.1276 Y6         2 LUT     -0.023547
    175 C36        87.5607   65.9801   36.5508 Y7         2 LUT     -0.393485
    176 C37        86.8090   63.7202   36.8230 Y7         2 LUT     -0.393485
    177 C38        83.8030   66.8015   33.7075 Y9         2 LUT     -0.387526
    178 C39        82.8565   67.4727   38.6938 W1         2 LUT     -0.322618
    179 C40        78.9760   66.0538   42.1719 W2         2 LUT     -0.358472
    180 H403       79.0778   67.0452   41.7183 R7         2 LUT      0.097720
    181 H402       78.3397   66.2021   43.0668 R7         2 LUT      0.097720
    182 H401       79.9458   65.8432   42.6912 R7         2 LUT      0.097720
    183 H393       83.3796   68.1165   38.0249 R4         2 LUT      0.082505
    184 H392       81.9919   67.9423   39.0631 R4         2 LUT      0.082505
    185 H391       83.5169   67.5032   39.5349 R4         2 LUT      0.082505
    186 H383       82.9423   66.1107   33.8311 R1         2 LUT      0.104030
    187 H382       83.5902   67.4719   34.5810 R1         2 LUT      0.104030
    188 H381       83.7215   67.3503   32.7403 R1         2 LUT      0.104030
    189 H373       86.3001   64.0581   37.6852 T4         2 LUT      0.089537
    190 H372       86.3459   62.8206   36.6430 T4         2 LUT      0.089537
    191 H371       87.8250   63.4534   37.0352 T4         2 LUT      0.089537
    192 H363       87.4954   66.8886   36.0026 T4         2 LUT      0.089537
    193 H362       87.1704   66.3055   37.5245 T4         2 LUT      0.089537
    194 H361       88.5562   65.6073   36.6639 T4         2 LUT      0.089537
    195 H222       88.6050   64.2794   34.7175 U2         2 LUT      0.127376
    196 H221       87.1298   63.5576   34.0776 U2         2 LUT      0.127376
    197 H203       72.2711   62.4288   40.7870 R7         2 LUT      0.087068
    198 H202       73.2998   61.1887   41.5069 R7         2 LUT      0.087068
    199 H201       71.5589   61.4423   41.9595 R7         2 LUT      0.087068
    200 H193       68.4929   59.7516   46.4555 R4         2 LUT      0.089716
    201 H192       67.9718   60.4513   44.9520 R4         2 LUT      0.089716
    202 H191       69.5504   59.8280   45.1128 R4         2 LUT      0.089716
    203 H183       65.1480   64.4422   47.5518 R1         2 LUT      0.094572
    204 H182       66.9016   64.7968   47.5116 R1         2 LUT      0.094572
    205 H181       66.1771   63.1898   46.9996 R1         2 LUT      0.094572
    206 H173       68.9598   60.4305   50.8871 T4         2 LUT      0.093752
    207 H172       69.6879   62.0974   50.3444 T4         2 LUT      0.093752
    208 H171       69.4853   61.6902   52.1107 T4         2 LUT      0.093752
    209 H163       66.9710   60.2130   51.6162 T4         2 LUT      0.093752
    210 H162       66.5182   61.6338   52.7012 T4         2 LUT      0.093752
    211 H161       65.7034   61.4356   51.1296 T4         2 LUT      0.093752
    212 HO3        65.7276   65.9105   52.5559 Q1         2 LUT      0.300121
    213 H8         68.5774   63.2026   47.3016 U7         2 LUT      0.080784
    214 H7         68.0505   60.5095   48.5234 U6         2 LUT      0.042190
    215 H42        64.7664   64.1779   50.1695 U5         2 LUT      0.145166
    216 H41        65.5507   65.4786   49.9644 U5         2 LUT      0.145166
    217 H35        76.1720   65.3840   42.8627 T3         2 LUT      0.077919
    218 H34        77.3059   63.5405   40.6009 T2         2 LUT      0.073626
    219 H32        79.3184   64.1020   39.3939 T1         2 LUT      0.092510
    220 H31        80.8826   66.3156   40.5059 U9         2 LUT      0.070048
    221 H30        81.6161   64.1912   38.4322 U8         2 LUT      0.085442
    222 H3         65.5488   63.5852   52.1785 U3         2 LUT     -0.031596
    223 H28        83.0686   64.5374   36.7188 U7         2 LUT      0.084728
    224 H27        85.0082   66.9409   36.7465 U6         2 LUT      0.087291
    225 H26        84.7745   64.3630   35.1734 Q6         2 LUT      0.075325
    226 H24        86.0744   66.6346   32.1033 Q5         2 LUT      0.094482
    227 H23        88.0839   66.4339   33.6755 U3         2 LUT     -0.024869
    228 H22        67.8172   63.4249   52.7582 U2         2 LUT      0.127376
    229 H21        68.3229   64.2783   51.0971 U2         2 LUT      0.127376
    230 H15        75.2010   63.0585   41.1764 T3         2 LUT      0.093200
    231 H14        73.9957   64.6268   43.5033 T2         2 LUT      0.068865
    232 H12        72.0221   64.1017   44.2631 T1         2 LUT      0.095507
    233 H11        71.1724   61.1125   44.0479 U9         2 LUT      0.068930
    234 H10        70.5102   63.2860   46.1003 U8         2 LUT      0.083911
    235 H1         87.6130   64.2701   31.7484 Q1         2 LUT      0.297311
@<TRIPOS>BOND
    1     6     1 1
    2     7     2 1
    3     8     3 1
    4     9     4 1
    5    11     4 1
    6    12     6 1
    7    13     9 1
    8    16     9 1
    9    25     5 1
   10    25    16 1
   11    26    10 1
   12    26    17 1
   13    27    18 1
   14    28    14 1
   15    28    19 1
   16    29    12 1
   17    30    13 1
   18    31    24 1
   19    32     1 1
   20    32    25 1
   21    33    21 1
   22    33    26 1
   23    34    22 1
   24    34    27 1
   25    35    23 1
   26    35    28 1
   27    36    12 1
   28    36    24 1
   29    37    13 1
   30    37    15 1
   31    38    31 1
   32    39    20 1
   33    39    32 1
   34    40     2 1
   35    40    33 1
   36    41     3 1
   37    41    34 1
   38    42     4 1
   39    42    35 1
   40    43    38 1
   41    44     5 1
   42    44    17 1
   43    44    39 1
   44    45    10 1
   45    45    18 1
   46    45    40 1
   47    46    19 1
   48    46    41 1
   49    47    14 1
   50    47    16 1
   51    47    42 1
   52    48    38 1
   53    49    48 1
   54    50    49 1
   55    51    50 1
   56    52    51 1
   57    53    51 1
   58    54    53 1
   59    55    54 1
   60    56    55 1
   61    57    56 1
   62    58    56 1
   63    59    58 1
   64    60    59 1
   65    61    60 1
   66    62    61 1
   67    63    61 1
   68    64    27 1
   69    64    46 1
   70    65     5 1
   71    65    10 1
   72    65    64 1
   73    65    14 1
   74    66    23 1
   75    67    23 1
   76    68    23 1
   77    69    22 1
   78    70    22 1
   79    71    22 1
   80    72    21 1
   81    73    21 1
   82    74    21 1
   83    75    20 1
   84    76    20 1
   85    77    20 1
   86    78    15 1
   87    79    15 1
   88    80    15 1
   89    81     8 1
   90    82     8 1
   91    83     8 1
   92    84     7 1
   93    85     7 1
   94    86     6 1
   95    87     6 1
   96    88     3 1
   97    89     3 1
   98    90     1 1
   99    91     1 1
  100    92    63 1
  101    93    63 1
  102    94    63 1
  103    95    62 1
  104    96    62 1
  105    97    62 1
  106    98    60 1
  107    99    60 1
  108   100    59 1
  109   101    59 1
  110   102    58 1
  111   103    58 1
  112   104    57 1
  113   105    57 1
  114   106    57 1
  115   107    55 1
  116   108    55 1
  117   109    54 1
  118   110    54 1
  119   111    53 1
  120   112    53 1
  121   113    19 1
  122   114    18 1
  123   115    17 1
  124   116     9 1
  125   117     2 1
  126   118    52 1
  127   119    52 1
  128   120    52 1
  129   121    51 1
  130   122    50 1
  131   123    50 1
  132   124    49 1
  133   125    49 1
  134   126    48 1
  135   127    48 1
  136   128    43 1
  137   129    43 1
  138   130    43 1
  139   131    39 1
  140   132    32 1
  141   133    31 1
  142   134    61 1
  143   135    56 1
  144   136    24 1
  145   137    24 1
  146   139   138 1
  147   140   139 1
  148   141   140 1
  149   142   140 1
  150   143   142 1
  151   144   138 1
  152   144   143 1
  153   145   144 1
  154   146   145 1
  155   147   146 1
  156   148   147 1
  157   149   148 1
  158   150   149 1
  159   151   150 1
  160   152   151 1
  161   153   152 1
  162   154   138 1
  163   155   138 1
  164   156   143 1
  165   157   147 1
  166   158   151 1
  167   160   159 1
  168   161   160 1
  169   162   161 1
  170   163   161 1
  171   164   163 1
  172   165   159 1
  173   165   164 1
  174   166   165 1
  175   167   166 1
  176   168   167 1
  177   169   168 1
  178   170   169 1
  179   171   170 1
  180   172   171 1
  181   173   172 1
  182   174   153 1
  183   174   173 1
  184   175   159 1
  185   176   159 1
  186   177   164 1
  187   178   168 1
  188   179   172 1
  189   180   179 1
  190   181   179 1
  191   182   179 1
  192   183   178 1
  193   184   178 1
  194   185   178 1
  195   186   177 1
  196   187   177 1
  197   188   177 1
  198   189   176 1
  199   190   176 1
  200   191   176 1
  201   192   175 1
  202   193   175 1
  203   194   175 1
  204   195   160 1
  205   196   160 1
  206   197   158 1
  207   198   158 1
  208   199   158 1
  209   200   157 1
  210   201   157 1
  211   202   157 1
  212   203   156 1
  213   204   156 1
  214   205   156 1
  215   206   155 1
  216   207   155 1
  217   208   155 1
  218   209   154 1
  219   210   154 1
  220   211   154 1
  221   212   141 1
  222   213   146 1
  223   214   145 1
  224   215   142 1
  225   216   142 1
  226   217   174 1
  227   218   173 1
  228   219   171 1
  229   220   170 1
  230   221   169 1
  231   222   140 1
  232   223   167 1
  233   224   166 1
  234   225   165 1
  235   226   163 1
  236   227   161 1
  237   228   139 1
  238   229   139 1
  239   230   153 1
  240   231   152 1
  241   232   150 1
  242   233   149 1
  243   234   148 1
  244   235   162 1
  245   65    153 1
  246   65    174 1
@<TRIPOS>SUBSTRUCTURE
      1 CLA               1 ****               0 ****  **** 
      2 LUT             138 ****               0 ****  **** 
