@<TRIPOS>MOLECULE
Cpptraj generated mol2 file.
  235   246     2     0     0
SMALL
USER_CHARGES


@<TRIPOS>ATOM
      1 CAA        80.3192   58.2384   34.2339 a2         1 CLA     -0.055900
      2 CAB        80.8556   62.7118   42.9516 c8         1 CLA     -0.148500
      3 CAC        74.0265   58.2860   43.4470 a2         1 CLA     -0.012600
      4 CAD        76.3146   55.4348   36.1183 ck         1 CLA      0.398800
      5 NA         79.5476   58.7240   37.6596 ns         1 CLA     -0.225500
      6 CBA        81.5026   58.0626   33.3601 a2         1 CLA     -0.135000
      7 CBB        80.6713   62.2844   44.2469 c0         1 CLA     -0.395200
      8 CBC        74.2844   56.8276   43.7240 a3         1 CLA     -0.037700
      9 CBD        77.7018   56.0236   35.6067 a1         1 CLA     -0.053900
     10 NB         79.6168   60.3819   40.2672 nm         1 CLA     -0.295700
     11 OBD        75.6006   54.6659   35.5167 o2         1 CLA     -0.494600
     12 CGA        81.9419   56.6931   33.0379 c4         1 CLA      0.827000
     13 CGD        78.5627   54.7032   35.4622 c4         1 CLA      0.655300
     14 ND         76.8365   57.8190   38.6503 nm         1 CLA     -0.291600
     15 CED        79.7060   53.0198   36.5719 a3         1 CLA      0.005400
     16 CHA        78.1787   57.0918   36.6526 cs         1 CLA     -0.123800
     17 CHB        81.3537   60.0956   38.4862 aa         1 CLA     -0.291900
     18 CHC        78.2713   60.9686   42.2742 aa         1 CLA     -0.090400
     19 CHD        75.1203   57.8556   40.3946 aa         1 CLA     -0.052000
     20 CMA        82.8809   57.7226   37.0348 a3         1 CLA     -0.230700
     21 CMB        82.8860   62.3516   40.3939 a3         1 CLA     -0.180800
     22 CMC        76.2026   60.6298   44.4958 a3         1 CLA     -0.134000
     23 CMD        73.6479   55.8585   38.2947 a3         1 CLA     -0.141100
     24 C1         83.1236   54.7194   33.6696 a2         1 CLA      0.023000
     25 C1A        79.3565   57.8456   36.6255 ac         1 CLA     -0.015100
     26 C1B        80.8238   60.7171   39.6881 cr         1 CLA      0.054700
     27 C1C        77.1288   60.0720   42.1662 cn         1 CLA     -0.005600
     28 C1D        75.5992   57.3616   39.1296 ap         1 CLA     -0.047300
     29 O1A        81.4189   56.0377   32.1740 o2         1 CLA     -0.610800
     30 O1D        79.1048   54.3286   34.4566 o2         1 CLA     -0.558200
     31 C2         83.8635   54.3674   34.9039 c8         1 CLA     -0.325100
     32 C2A        80.5978   57.7092   35.6765 a1         1 CLA      0.098600
     33 C2B        81.4302   61.7638   40.5638 cb         1 CLA      0.088500
     34 C2C        76.1035   59.8948   43.1667 cb         1 CLA      0.053700
     35 C2D        75.0176   56.3976   38.2100 cb         1 CLA      0.058900
     36 O2A        82.8457   56.1292   33.9429 o1         1 CLA     -0.437200
     37 O2D        78.7662   54.1510   36.7336 o1         1 CLA     -0.357600
     38 C3         85.1037   53.8756   34.9841 c5         1 CLA      0.031200
     39 C3A        81.7176   58.5785   36.4541 a1         1 CLA      0.166800
     40 C3B        80.5885   61.8913   41.6975 cb         1 CLA      0.035000
     41 C3C        75.2181   58.8932   42.7287 cb         1 CLA     -0.089900
     42 C3D        76.0035   56.1790   37.2819 cb         1 CLA     -0.035900
     43 C4         85.5914   52.4186   34.9079 a3         1 CLA     -0.053300
     44 C4A        80.7974   59.2610   37.5536 ac         1 CLA      0.001800
     45 C4B        79.4228   61.0421   41.4641 cn         1 CLA     -0.020900
     46 C4C        75.6913   58.7031   41.3643 cr         1 CLA     -0.044400
     47 C4D        77.0959   57.1355   37.5567 c6         1 CLA     -0.046000
     48 C5         86.2746   54.8824   35.2019 a2         1 CLA     -0.070400
     49 C6         86.6053   55.2228   36.6629 a2         1 CLA      0.043900
     50 C7         87.8443   56.1347   36.7341 a2         1 CLA     -0.150000
     51 C8         87.9470   56.8637   38.1204 a1         1 CLA      0.064200
     52 C9         88.8009   58.1260   38.1073 a3         1 CLA     -0.259300
     53 C10        88.3585   55.8836   39.2838 a2         1 CLA     -0.071900
     54 C11        88.7640   56.4433   40.7182 a2         1 CLA      0.014500
     55 C12        87.5527   57.0129   41.4349 a2         1 CLA     -0.112100
     56 C13        87.7453   57.8382   42.7753 a1         1 CLA      0.089200
     57 C14        88.6197   57.1239   43.8567 a3         1 CLA     -0.239100
     58 C15        86.5006   58.4067   43.5519 a2         1 CLA     -0.102200
     59 C16        86.6415   59.7816   44.3485 a2         1 CLA      0.023900
     60 C17        85.2547   60.1085   45.0150 a2         1 CLA     -0.105700
     61 C18        84.6475   59.1840   46.0742 a1         1 CLA      0.206800
     62 C19        85.5752   58.6036   47.1910 a3         1 CLA     -0.280100
     63 C20        83.4423   59.8593   46.7315 a3         1 CLA     -0.280100
     64 NC         76.8463   59.3998   41.0903 nx         1 CLA     -0.309200
     65 MG         78.1236   59.2497   39.2631 mg         1 CLA      0.895000
     66 HMD3       73.7293   55.2018   39.1235 dc         1 CLA      0.064300
     67 HMD2       72.8805   56.5616   38.5260 dc         1 CLA      0.064300
     68 HMD1       73.3676   55.3304   37.3972 dc         1 CLA      0.064300
     69 HMC3       76.2523   61.6474   44.3441 dc         1 CLA      0.052100
     70 HMC2       75.2413   60.3140   44.9922 dc         1 CLA      0.052100
     71 HMC1       77.0779   60.2738   45.0626 dc         1 CLA      0.052100
     72 HMB3       82.7675   63.3467   39.9738 dc         1 CLA      0.063600
     73 HMB2       83.4206   62.3545   41.3864 dc         1 CLA      0.063600
     74 HMB1       83.4609   61.8095   39.6531 dc         1 CLA      0.063600
     75 HMA3       83.5466   57.2832   36.3114 dc         1 CLA      0.058300
     76 HMA2       83.5406   58.4066   37.5593 dc         1 CLA      0.058300
     77 HMA1       82.6405   56.7986   37.6533 dc         1 CLA      0.058300
     78 HED3       79.6382   52.3126   37.3856 dc         1 CLA      0.079300
     79 HED2       79.5569   52.4106   35.6979 dc         1 CLA      0.079300
     80 HED1       80.7308   53.4252   36.5470 dc         1 CLA      0.079300
     81 HBC3       74.2565   56.3932   42.7212 dc         1 CLA      0.016300
     82 HBC2       75.2284   56.5221   44.1351 dc         1 CLA      0.016300
     83 HBC1       73.4088   56.5419   44.2422 dc         1 CLA      0.016300
     84 HBB2       80.9119   62.9379   45.1091 da         1 CLA      0.183000
     85 HBB1       80.3838   61.2028   44.3279 da         1 CLA      0.183000
     86 HBA2       81.3614   58.6188   32.4265 dc         1 CLA      0.029400
     87 HBA1       82.2696   58.4606   33.9104 dc         1 CLA      0.029400
     88 HAC2       73.9643   58.6249   44.5000 dc         1 CLA      0.029300
     89 HAC1       73.1103   58.5103   42.8885 dc         1 CLA      0.029300
     90 HAA2       79.4345   57.6818   33.9001 dc         1 CLA      0.028700
     91 HAA1       80.1312   59.2959   34.3025 dc         1 CLA      0.028700
     92 H203       82.8186   60.3211   45.9114 dc         1 CLA      0.065600
     93 H202       82.8572   59.2223   47.3862 dc         1 CLA      0.065600
     94 H201       83.8078   60.7171   47.3171 dc         1 CLA      0.065600
     95 H193       86.5031   58.1320   46.7883 dc         1 CLA      0.065600
     96 H192       85.7975   59.4914   47.8649 dc         1 CLA      0.065600
     97 H191       85.0444   57.9126   47.8320 dc         1 CLA      0.065600
     98 H172       85.5115   61.0889   45.4838 dc         1 CLA      0.027600
     99 H171       84.6052   60.3479   44.2058 dc         1 CLA      0.027600
    100 H162       87.3794   59.7695   45.1356 dc         1 CLA      0.002900
    101 H161       86.7851   60.6781   43.7310 dc         1 CLA      0.002900
    102 H152       85.7013   58.4981   42.7913 dc         1 CLA      0.029100
    103 H151       86.0421   57.6663   44.2076 dc         1 CLA      0.029100
    104 H143       88.4916   57.6439   44.7709 dc         1 CLA      0.063600
    105 H142       88.3136   56.1013   44.1698 dc         1 CLA      0.063600
    106 H141       89.6111   57.1905   43.5187 dc         1 CLA      0.063600
    107 H122       87.0219   57.7500   40.7989 dc         1 CLA      0.032500
    108 H121       86.7695   56.2110   41.5390 dc         1 CLA      0.032500
    109 H112       89.0377   55.6019   41.4257 dc         1 CLA      0.006600
    110 H111       89.4262   57.3433   40.7907 dc         1 CLA      0.006600
    111 H102       87.4572   55.1786   39.3368 dc         1 CLA      0.024100
    112 H101       89.3301   55.3742   38.9822 dc         1 CLA      0.024100
    113 HHD        74.1914   57.4218   40.6874 da         1 CLA      0.174300
    114 HHC        78.3184   61.5530   43.1752 da         1 CLA      0.136800
    115 HHB        82.3610   60.4303   38.2642 da         1 CLA      0.138300
    116 HBD        77.5766   56.4631   34.6220 dc         1 CLA      0.107700
    117 HAB        81.2278   63.6879   42.7579 da         1 CLA      0.155200
    118 H93        89.8131   57.8185   37.8444 dc         1 CLA      0.069500
    119 H92        88.6471   58.6783   37.1951 dc         1 CLA      0.069500
    120 H91        88.7878   58.8617   38.8976 dc         1 CLA      0.069500
    121 H8         86.9206   57.2055   38.3179 dc         1 CLA      0.029300
    122 H72        88.7630   55.5068   36.7029 dc         1 CLA      0.044400
    123 H71        87.7066   56.8579   35.8946 dc         1 CLA      0.044400
    124 H62        85.6931   55.7520   36.9981 dc         1 CLA      0.015600
    125 H61        86.9138   54.2729   37.1343 dc         1 CLA      0.015600
    126 H52        87.2090   54.3587   34.8655 dc         1 CLA      0.033200
    127 H51        86.0916   55.7374   34.5093 dc         1 CLA      0.033200
    128 H43        85.9896   52.2853   33.9015 dc         1 CLA      0.037000
    129 H42        86.2689   52.1747   35.6749 dc         1 CLA      0.037000
    130 H41        84.7458   51.7722   34.9589 dc         1 CLA      0.037000
    131 H3A        82.2074   59.4219   35.9855 dc         1 CLA      0.041100
    132 H2A        80.6926   56.5194   35.7536 dc         1 CLA      0.083100
    133 H2         83.3497   54.2219   35.8522 da         1 CLA      0.180900
    134 H18        84.2592   58.2811   45.5420 dc         1 CLA     -0.003900
    135 H13        88.2710   58.7578   42.4760 dc         1 CLA      0.019700
    136 H12        82.2070   54.0677   33.7482 dc         1 CLA      0.120400
    137 H11        83.6060   54.5927   32.7554 dc         1 CLA      0.120400
    138 C1         70.8971   61.3996   49.9596 Z1         2 LUT      0.509236
    139 C2         70.4554   62.1201   51.2985 Z2         2 LUT     -0.434695
    140 C3         68.9639   62.5312   51.2987 Z3         2 LUT      0.437453
    141 O3         68.5438   63.0210   52.6096 S1         2 LUT     -0.547129
    142 C4         68.6004   63.4185   50.1241 Z4         2 LUT     -0.468603
    143 C5         69.3038   63.0744   48.8555 Z5         2 LUT      0.279246
    144 C6         70.2638   62.0917   48.7100 Z6         2 LUT     -0.305473
    145 C7         70.8248   61.8253   47.3715 Z7         2 LUT      0.069402
    146 C8         71.7555   62.5873   46.7812 Z8         2 LUT     -0.191631
    147 C9         72.3140   62.4350   45.4182 Z9         2 LUT      0.196698
    148 C10        73.2935   63.3365   45.0047 Y1         2 LUT     -0.208611
    149 C11        73.9370   63.3692   43.7367 Y2         2 LUT      0.030784
    150 C12        75.1581   64.0371   43.5177 Y3         2 LUT     -0.220316
    151 C13        76.0971   64.0115   42.3904 Y4         2 LUT      0.215937
    152 C14        77.2387   64.7514   42.4233 Y5         2 LUT     -0.185793
    153 C15        78.3092   64.6048   41.4324 Y6         2 LUT     -0.057835
    154 C16        70.4135   59.9202   50.0984 Y7         2 LUT     -0.405615
    155 C17        72.4186   61.4401   49.8340 Y7         2 LUT     -0.405615
    156 C18        68.7676   63.9913   47.7729 Y9         2 LUT     -0.369639
    157 C19        71.7235   61.2536   44.6502 W1         2 LUT     -0.333362
    158 C20        75.6331   63.2446   41.1618 W2         2 LUT     -0.323439
    159 C21        89.2247   65.6797   34.7335 Z1         2 LUT      0.406104
    160 C22        90.0237   65.0486   33.5032 Z2         2 LUT     -0.404965
    161 C23        90.0975   65.8245   32.2627 Z3         2 LUT      0.391255
    162 O23        90.6632   65.0810   31.2028 S1         2 LUT     -0.528210
    163 C24        88.7889   66.5925   31.9776 W6         2 LUT     -0.258361
    164 C25        87.7588   66.7892   32.8147 Z5         2 LUT      0.133546
    165 C26        87.7784   66.2144   34.2343 W8         2 LUT     -0.147008
    166 C27        87.0494   67.0318   35.3448 Z7         2 LUT      0.023843
    167 C28        86.0680   66.4484   36.1512 Z8         2 LUT     -0.216987
    168 C29        85.3783   66.9377   37.3509 Z9         2 LUT      0.206524
    169 C30        84.3166   66.2870   37.8984 Y1         2 LUT     -0.215556
    170 C31        83.7012   66.6205   39.1757 Y2         2 LUT      0.025142
    171 C32        82.5822   65.9843   39.6748 Y3         2 LUT     -0.212209
    172 C33        81.6742   66.2698   40.7675 Y4         2 LUT      0.240937
    173 C34        80.5261   65.5018   40.6824 Y5         2 LUT     -0.218862
    174 C35        79.4020   65.4445   41.5137 Y6         2 LUT     -0.023547
    175 C36        90.1606   66.7659   35.2262 Y7         2 LUT     -0.393485
    176 C37        89.0752   64.5064   35.7391 Y7         2 LUT     -0.393485
    177 C38        86.4788   67.4072   32.3453 Y9         2 LUT     -0.387526
    178 C39        85.8214   68.2586   37.7900 W1         2 LUT     -0.322618
    179 C40        82.1179   67.1041   41.9048 W2         2 LUT     -0.358472
    180 H403       81.3092   67.1331   42.6731 R7         2 LUT      0.097720
    181 H402       83.0960   66.6967   42.3566 R7         2 LUT      0.097720
    182 H401       82.1549   68.1934   41.5828 R7         2 LUT      0.097720
    183 H393       85.2720   68.7880   38.5647 R4         2 LUT      0.082505
    184 H392       86.9274   68.4012   37.9170 R4         2 LUT      0.082505
    185 H391       85.7483   68.8600   36.9309 R4         2 LUT      0.082505
    186 H383       85.6533   66.7104   32.3666 R1         2 LUT      0.104030
    187 H382       86.2173   68.2356   32.9895 R1         2 LUT      0.104030
    188 H381       86.7274   67.8681   31.4196 R1         2 LUT      0.104030
    189 H373       89.9834   63.8898   35.6610 T4         2 LUT      0.089537
    190 H372       88.9521   64.8321   36.7284 T4         2 LUT      0.089537
    191 H371       88.2680   63.8094   35.6453 T4         2 LUT      0.089537
    192 H363       90.2146   67.6155   34.5382 T4         2 LUT      0.089537
    193 H362       89.8157   67.2126   36.2065 T4         2 LUT      0.089537
    194 H361       91.2010   66.4314   35.3155 T4         2 LUT      0.089537
    195 H222       91.0759   64.7992   33.6597 U2         2 LUT      0.127376
    196 H221       89.6251   64.0504   33.2333 U2         2 LUT      0.127376
    197 H203       75.4941   62.1794   41.3202 R7         2 LUT      0.087068
    198 H202       74.6867   63.5285   40.7446 R7         2 LUT      0.087068
    199 H201       76.3387   63.3438   40.2644 R7         2 LUT      0.087068
    200 H193       72.1421   61.1591   43.7114 R4         2 LUT      0.089716
    201 H192       71.8427   60.2286   45.0373 R4         2 LUT      0.089716
    202 H191       70.6370   61.3886   44.4517 R4         2 LUT      0.089716
    203 H183       67.8202   64.4277   48.1372 R1         2 LUT      0.094572
    204 H182       69.4188   64.8864   47.5098 R1         2 LUT      0.094572
    205 H181       68.5269   63.4120   46.8482 R1         2 LUT      0.094572
    206 H173       72.8483   61.1655   48.8171 T4         2 LUT      0.093752
    207 H172       72.6390   62.5328   49.9317 T4         2 LUT      0.093752
    208 H171       72.9123   60.9612   50.7419 T4         2 LUT      0.093752
    209 H163       70.6317   59.2925   49.2122 T4         2 LUT      0.093752
    210 H162       71.0427   59.4694   50.8892 T4         2 LUT      0.093752
    211 H161       69.3348   59.7809   50.3418 T4         2 LUT      0.093752
    212 HO3        68.7775   62.4807   53.4058 Q1         2 LUT      0.300121
    213 H8         72.1011   63.4570   47.3529 U7         2 LUT      0.080784
    214 H7         70.5135   60.9576   46.9097 U6         2 LUT      0.042190
    215 H42        67.5506   63.2507   49.9467 U5         2 LUT      0.145166
    216 H41        68.8398   64.4646   50.4369 U5         2 LUT      0.145166
    217 H35        79.3127   66.1860   42.3104 T3         2 LUT      0.077919
    218 H34        80.3525   64.7910   39.8664 T2         2 LUT      0.073626
    219 H32        82.2074   65.2306   38.9983 T1         2 LUT      0.092510
    220 H31        84.2387   67.4394   39.6263 U9         2 LUT      0.070048
    221 H30        84.0378   65.2783   37.5687 U8         2 LUT      0.085442
    222 H3         68.3733   61.6050   51.1233 U3         2 LUT     -0.031596
    223 H28        85.8448   65.3759   35.9586 U7         2 LUT      0.084728
    224 H27        87.5095   68.0365   35.6382 U6         2 LUT      0.087291
    225 H26        87.0938   65.3946   34.0894 Q6         2 LUT      0.075325
    226 H24        88.6982   66.8708   30.9196 Q5         2 LUT      0.094482
    227 H23        90.6487   66.7803   32.4614 U3         2 LUT     -0.024869
    228 H22        70.7516   61.3984   52.0988 U2         2 LUT      0.127376
    229 H21        71.0278   63.0572   51.3973 U2         2 LUT      0.127376
    230 H15        78.1811   63.6652   40.7657 T3         2 LUT      0.093200
    231 H14        77.4135   65.4469   43.2172 T2         2 LUT      0.068865
    232 H12        75.4917   64.5860   44.4202 T1         2 LUT      0.095507
    233 H11        73.7214   62.5772   42.9873 U9         2 LUT      0.068930
    234 H10        73.5824   64.1288   45.6819 U8         2 LUT      0.083911
    235 H1         90.0439   64.4962   30.8215 Q1         2 LUT      0.297311
@<TRIPOS>BOND
    1     6     1 1
    2     7     2 1
    3     8     3 1
    4     9     4 1
    5    11     4 1
    6    12     6 1
    7    13     9 1
    8    16     9 1
    9    25     5 1
   10    25    16 1
   11    26    10 1
   12    26    17 1
   13    27    18 1
   14    28    14 1
   15    28    19 1
   16    29    12 1
   17    30    13 1
   18    31    24 1
   19    32     1 1
   20    32    25 1
   21    33    21 1
   22    33    26 1
   23    34    22 1
   24    34    27 1
   25    35    23 1
   26    35    28 1
   27    36    12 1
   28    36    24 1
   29    37    13 1
   30    37    15 1
   31    38    31 1
   32    39    20 1
   33    39    32 1
   34    40     2 1
   35    40    33 1
   36    41     3 1
   37    41    34 1
   38    42     4 1
   39    42    35 1
   40    43    38 1
   41    44     5 1
   42    44    17 1
   43    44    39 1
   44    45    10 1
   45    45    18 1
   46    45    40 1
   47    46    19 1
   48    46    41 1
   49    47    14 1
   50    47    16 1
   51    47    42 1
   52    48    38 1
   53    49    48 1
   54    50    49 1
   55    51    50 1
   56    52    51 1
   57    53    51 1
   58    54    53 1
   59    55    54 1
   60    56    55 1
   61    57    56 1
   62    58    56 1
   63    59    58 1
   64    60    59 1
   65    61    60 1
   66    62    61 1
   67    63    61 1
   68    64    27 1
   69    64    46 1
   70    65     5 1
   71    65    10 1
   72    65    64 1
   73    65    14 1
   74    66    23 1
   75    67    23 1
   76    68    23 1
   77    69    22 1
   78    70    22 1
   79    71    22 1
   80    72    21 1
   81    73    21 1
   82    74    21 1
   83    75    20 1
   84    76    20 1
   85    77    20 1
   86    78    15 1
   87    79    15 1
   88    80    15 1
   89    81     8 1
   90    82     8 1
   91    83     8 1
   92    84     7 1
   93    85     7 1
   94    86     6 1
   95    87     6 1
   96    88     3 1
   97    89     3 1
   98    90     1 1
   99    91     1 1
  100    92    63 1
  101    93    63 1
  102    94    63 1
  103    95    62 1
  104    96    62 1
  105    97    62 1
  106    98    60 1
  107    99    60 1
  108   100    59 1
  109   101    59 1
  110   102    58 1
  111   103    58 1
  112   104    57 1
  113   105    57 1
  114   106    57 1
  115   107    55 1
  116   108    55 1
  117   109    54 1
  118   110    54 1
  119   111    53 1
  120   112    53 1
  121   113    19 1
  122   114    18 1
  123   115    17 1
  124   116     9 1
  125   117     2 1
  126   118    52 1
  127   119    52 1
  128   120    52 1
  129   121    51 1
  130   122    50 1
  131   123    50 1
  132   124    49 1
  133   125    49 1
  134   126    48 1
  135   127    48 1
  136   128    43 1
  137   129    43 1
  138   130    43 1
  139   131    39 1
  140   132    32 1
  141   133    31 1
  142   134    61 1
  143   135    56 1
  144   136    24 1
  145   137    24 1
  146   139   138 1
  147   140   139 1
  148   141   140 1
  149   142   140 1
  150   143   142 1
  151   144   138 1
  152   144   143 1
  153   145   144 1
  154   146   145 1
  155   147   146 1
  156   148   147 1
  157   149   148 1
  158   150   149 1
  159   151   150 1
  160   152   151 1
  161   153   152 1
  162   154   138 1
  163   155   138 1
  164   156   143 1
  165   157   147 1
  166   158   151 1
  167   160   159 1
  168   161   160 1
  169   162   161 1
  170   163   161 1
  171   164   163 1
  172   165   159 1
  173   165   164 1
  174   166   165 1
  175   167   166 1
  176   168   167 1
  177   169   168 1
  178   170   169 1
  179   171   170 1
  180   172   171 1
  181   173   172 1
  182   174   153 1
  183   174   173 1
  184   175   159 1
  185   176   159 1
  186   177   164 1
  187   178   168 1
  188   179   172 1
  189   180   179 1
  190   181   179 1
  191   182   179 1
  192   183   178 1
  193   184   178 1
  194   185   178 1
  195   186   177 1
  196   187   177 1
  197   188   177 1
  198   189   176 1
  199   190   176 1
  200   191   176 1
  201   192   175 1
  202   193   175 1
  203   194   175 1
  204   195   160 1
  205   196   160 1
  206   197   158 1
  207   198   158 1
  208   199   158 1
  209   200   157 1
  210   201   157 1
  211   202   157 1
  212   203   156 1
  213   204   156 1
  214   205   156 1
  215   206   155 1
  216   207   155 1
  217   208   155 1
  218   209   154 1
  219   210   154 1
  220   211   154 1
  221   212   141 1
  222   213   146 1
  223   214   145 1
  224   215   142 1
  225   216   142 1
  226   217   174 1
  227   218   173 1
  228   219   171 1
  229   220   170 1
  230   221   169 1
  231   222   140 1
  232   223   167 1
  233   224   166 1
  234   225   165 1
  235   226   163 1
  236   227   161 1
  237   228   139 1
  238   229   139 1
  239   230   153 1
  240   231   152 1
  241   232   150 1
  242   233   149 1
  243   234   148 1
  244   235   162 1
  245   65    153 1
  246   65    174 1
@<TRIPOS>SUBSTRUCTURE
      1 CLA               1 ****               0 ****  **** 
      2 LUT             138 ****               0 ****  **** 
