@<TRIPOS>MOLECULE
Cpptraj generated mol2 file.
  235   246     2     0     0
SMALL
USER_CHARGES


@<TRIPOS>ATOM
      1 CAA        78.9413   59.0129   34.4241 a2         1 CLA     -0.055900
      2 CAB        79.2090   62.7012   43.5446 c8         1 CLA     -0.148500
      3 CAC        72.2511   58.6544   43.0546 a2         1 CLA     -0.012600
      4 CAD        74.7866   56.3471   35.7158 ck         1 CLA      0.398800
      5 NA         78.0306   59.2638   37.9186 ns         1 CLA     -0.225500
      6 CBA        80.1151   59.0195   33.4490 a2         1 CLA     -0.135000
      7 CBB        80.3306   63.0311   44.1986 c0         1 CLA     -0.395200
      8 CBC        72.5481   57.1186   43.0784 a3         1 CLA     -0.037700
      9 CBD        76.2598   56.8431   35.3861 a1         1 CLA     -0.053900
     10 NB         77.9747   60.8115   40.5500 nm         1 CLA     -0.295700
     11 OBD        74.0349   55.7394   34.9360 o2         1 CLA     -0.494600
     12 CGA        80.6658   57.5994   33.1308 c4         1 CLA      0.827000
     13 CGD        77.2001   55.6716   35.1967 c4         1 CLA      0.655300
     14 ND         75.2574   58.5282   38.5343 nm         1 CLA     -0.291600
     15 CED        77.8186   53.4963   36.0263 a3         1 CLA      0.005400
     16 CHA        76.6864   57.7893   36.5234 cs         1 CLA     -0.123800
     17 CHB        79.8062   60.6199   38.9434 aa         1 CLA     -0.291900
     18 CHC        76.6655   61.1549   42.5398 aa         1 CLA     -0.090400
     19 CHD        73.3245   58.6310   40.1178 aa         1 CLA     -0.052000
     20 CMA        81.4679   58.5452   37.1555 a3         1 CLA     -0.230700
     21 CMB        81.2432   62.5931   40.9762 a3         1 CLA     -0.180800
     22 CMC        74.3940   60.6010   44.6517 a3         1 CLA     -0.134000
     23 CMD        72.0214   56.6108   37.8069 a3         1 CLA     -0.141100
     24 C1         81.4875   55.6746   34.2101 a2         1 CLA      0.023000
     25 C1A        77.9124   58.4686   36.7869 ac         1 CLA     -0.015100
     26 C1B        79.2210   61.0947   40.1310 cr         1 CLA      0.054700
     27 C1C        75.5193   60.3871   42.2652 cn         1 CLA     -0.005600
     28 C1D        73.9295   58.1419   38.8887 ap         1 CLA     -0.047300
     29 O1A        80.4716   57.0511   32.0690 o2         1 CLA     -0.610800
     30 O1D        78.1483   55.6530   34.4268 o2         1 CLA     -0.558200
     31 C2         82.5224   55.2197   35.2562 c8         1 CLA     -0.325100
     32 C2A        79.1567   58.5483   35.9080 a1         1 CLA      0.098600
     33 C2B        79.9563   61.8535   41.1804 cb         1 CLA      0.088500
     34 C2C        74.4005   60.1707   43.2074 cb         1 CLA      0.053700
     35 C2D        73.4311   57.1856   37.8707 cb         1 CLA      0.058900
     36 O2A        81.2251   57.0719   34.2761 o1         1 CLA     -0.437200
     37 O2D        76.9529   54.6351   36.0919 o1         1 CLA     -0.357600
     38 C3         83.7205   54.5919   34.9904 c5         1 CLA      0.031200
     39 C3A        80.1764   59.3662   36.7673 a1         1 CLA      0.166800
     40 C3B        79.0901   61.9301   42.2676 cb         1 CLA      0.035000
     41 C3C        73.3916   59.4887   42.4871 cb         1 CLA     -0.089900
     42 C3D        74.4799   56.9914   36.9720 cb         1 CLA     -0.035900
     43 C4         83.9057   53.0438   34.8182 a3         1 CLA     -0.053300
     44 C4A        79.2521   59.8177   37.9461 ac         1 CLA      0.001800
     45 C4B        77.8238   61.3228   41.7775 cn         1 CLA     -0.020900
     46 C4C        73.9760   59.3552   41.1341 cr         1 CLA     -0.044400
     47 C4D        75.5046   57.9087   37.3413 c6         1 CLA     -0.046000
     48 C5         85.0195   55.4150   34.6967 a2         1 CLA     -0.070400
     49 C6         85.3182   56.6341   35.6571 a2         1 CLA      0.043900
     50 C7         85.5259   56.1206   37.0910 a2         1 CLA     -0.150000
     51 C8         86.0154   57.2228   38.1393 a1         1 CLA      0.064200
     52 C9         87.3806   57.7815   37.7771 a3         1 CLA     -0.259300
     53 C10        85.9002   56.6910   39.6305 a2         1 CLA     -0.071900
     54 C11        86.1371   57.8215   40.6898 a2         1 CLA      0.014500
     55 C12        86.0924   57.3265   42.1617 a2         1 CLA     -0.112100
     56 C13        86.1637   58.4668   43.2208 a1         1 CLA      0.089200
     57 C14        87.5799   59.1281   43.2959 a3         1 CLA     -0.239100
     58 C15        85.6443   58.0842   44.6696 a2         1 CLA     -0.102200
     59 C16        85.7555   58.9487   45.8519 a2         1 CLA      0.023900
     60 C17        85.2835   58.1366   47.1545 a2         1 CLA     -0.105700
     61 C18        85.4535   58.9452   48.4870 a1         1 CLA      0.206800
     62 C19        84.5173   60.1322   48.4858 a3         1 CLA     -0.280100
     63 C20        85.0586   58.1114   49.7458 a3         1 CLA     -0.280100
     64 NC         75.2332   59.8661   41.0503 nx         1 CLA     -0.309200
     65 MG         76.6173   59.7013   39.5082 mg         1 CLA      0.895000
     66 HMD3       71.2221   57.2821   37.5628 dc         1 CLA      0.064300
     67 HMD2       71.9882   55.8620   37.0434 dc         1 CLA      0.064300
     68 HMD1       71.7579   56.0787   38.7403 dc         1 CLA      0.064300
     69 HMC3       74.6105   61.7276   44.6752 dc         1 CLA      0.052100
     70 HMC2       73.3958   60.3863   45.0491 dc         1 CLA      0.052100
     71 HMC1       75.1809   59.9558   45.0008 dc         1 CLA      0.052100
     72 HMB3       81.1972   63.4080   41.6990 dc         1 CLA      0.063600
     73 HMB2       82.0749   62.0016   41.3065 dc         1 CLA      0.063600
     74 HMB1       81.3503   62.8689   39.8776 dc         1 CLA      0.063600
     75 HMA3       81.2217   57.6115   37.5477 dc         1 CLA      0.058300
     76 HMA2       82.0677   58.3842   36.2818 dc         1 CLA      0.058300
     77 HMA1       82.0982   59.1813   37.8014 dc         1 CLA      0.058300
     78 HED3       77.5455   52.8797   35.2037 dc         1 CLA      0.079300
     79 HED2       78.8645   53.7250   36.0068 dc         1 CLA      0.079300
     80 HED1       77.6114   53.0224   37.0254 dc         1 CLA      0.079300
     81 HBC3       71.6030   56.5523   43.1232 dc         1 CLA      0.016300
     82 HBC2       73.0697   56.6938   42.1489 dc         1 CLA      0.016300
     83 HBC1       73.1789   56.7519   43.8992 dc         1 CLA      0.016300
     84 HBB2       80.3014   63.5538   45.1384 da         1 CLA      0.183000
     85 HBB1       81.3397   62.7793   43.8242 da         1 CLA      0.183000
     86 HBA2       79.8335   59.6033   32.5820 dc         1 CLA      0.029400
     87 HBA1       80.9611   59.4576   34.0050 dc         1 CLA      0.029400
     88 HAC2       71.9179   59.1019   43.9911 dc         1 CLA      0.029300
     89 HAC1       71.3689   58.6688   42.3904 dc         1 CLA      0.029300
     90 HAA2       77.9759   58.6214   34.0710 dc         1 CLA      0.028700
     91 HAA1       78.6002   60.0371   34.6057 dc         1 CLA      0.028700
     92 H203       83.9865   58.0747   49.9454 dc         1 CLA      0.065600
     93 H202       85.4452   57.0393   49.6348 dc         1 CLA      0.065600
     94 H201       85.5050   58.5674   50.6225 dc         1 CLA      0.065600
     95 H193       83.5196   59.9276   48.2048 dc         1 CLA      0.065600
     96 H192       84.5137   60.5522   49.4986 dc         1 CLA      0.065600
     97 H191       84.8635   60.9103   47.8100 dc         1 CLA      0.065600
     98 H172       84.1968   57.9625   47.2466 dc         1 CLA      0.027600
     99 H171       85.7806   57.2311   47.0991 dc         1 CLA      0.027600
    100 H162       86.7531   59.3103   46.1009 dc         1 CLA      0.002900
    101 H161       85.0624   59.7417   45.6780 dc         1 CLA      0.002900
    102 H152       84.6086   57.6247   44.5944 dc         1 CLA      0.029100
    103 H151       86.2107   57.1904   44.8746 dc         1 CLA      0.029100
    104 H143       87.5101   59.9948   43.9105 dc         1 CLA      0.063600
    105 H142       88.3070   58.4648   43.7674 dc         1 CLA      0.063600
    106 H141       87.9071   59.3636   42.2856 dc         1 CLA      0.063600
    107 H122       85.2650   56.6586   42.3772 dc         1 CLA      0.032500
    108 H121       87.0046   56.6801   42.2959 dc         1 CLA      0.032500
    109 H112       86.9441   58.4612   40.4463 dc         1 CLA      0.006600
    110 H111       85.1717   58.3949   40.4997 dc         1 CLA      0.006600
    111 H102       84.8849   56.3473   39.8487 dc         1 CLA      0.024100
    112 H101       86.5034   55.8481   39.7685 dc         1 CLA      0.024100
    113 HHD        72.2702   58.2820   40.2929 da         1 CLA      0.174300
    114 HHC        76.7535   61.5300   43.5480 da         1 CLA      0.136800
    115 HHB        80.8386   60.8606   38.8423 da         1 CLA      0.138300
    116 HBD        76.1837   57.5429   34.5031 dc         1 CLA      0.107700
    117 HAB        78.2528   62.9307   44.0715 da         1 CLA      0.155200
    118 H93        87.7033   58.4907   38.5532 dc         1 CLA      0.069500
    119 H92        88.1822   57.0260   37.9314 dc         1 CLA      0.069500
    120 H91        87.4769   58.2121   36.7892 dc         1 CLA      0.069500
    121 H8         85.2323   58.0854   38.0841 dc         1 CLA      0.029300
    122 H72        84.5721   55.6823   37.4281 dc         1 CLA      0.044400
    123 H71        86.2795   55.3003   37.1466 dc         1 CLA      0.044400
    124 H62        86.2317   57.1273   35.3716 dc         1 CLA      0.015600
    125 H61        84.5550   57.3721   35.5578 dc         1 CLA      0.015600
    126 H52        85.7724   54.6775   34.6839 dc         1 CLA      0.033200
    127 H51        84.9024   55.8107   33.6985 dc         1 CLA      0.033200
    128 H43        83.0084   52.4330   35.0926 dc         1 CLA      0.037000
    129 H42        84.2801   52.8145   33.7994 dc         1 CLA      0.037000
    130 H41        84.7149   52.7032   35.5019 dc         1 CLA      0.037000
    131 H3A        80.5850   60.2654   36.3322 dc         1 CLA      0.041100
    132 H2A        79.6478   57.5584   36.0267 dc         1 CLA      0.083100
    133 H2         82.4193   55.2638   36.3727 da         1 CLA      0.180900
    134 H18        86.4843   59.2259   48.5884 dc         1 CLA     -0.003900
    135 H13        85.4228   59.2027   42.9481 dc         1 CLA      0.019700
    136 H12        80.6101   55.1240   34.4107 dc         1 CLA      0.120400
    137 H11        81.8144   55.3443   33.2550 dc         1 CLA      0.120400
    138 C1         69.3301   62.0614   49.6943 Z1         2 LUT      0.509236
    139 C2         68.0697   61.7532   50.5095 Z2         2 LUT     -0.434695
    140 C3         67.1836   62.9588   50.9250 Z3         2 LUT      0.437453
    141 O3         67.6601   63.4254   52.2140 S1         2 LUT     -0.547129
    142 C4         67.1528   63.9800   49.7809 Z4         2 LUT     -0.468603
    143 C5         67.9911   63.6616   48.5135 Z5         2 LUT      0.279246
    144 C6         68.9422   62.6894   48.4263 Z6         2 LUT     -0.305473
    145 C7         69.4885   62.1937   47.1836 Z7         2 LUT      0.069402
    146 C8         70.4955   62.8714   46.5328 Z8         2 LUT     -0.191631
    147 C9         71.0818   62.5784   45.1985 Z9         2 LUT      0.196698
    148 C10        72.0558   63.3476   44.5943 Y1         2 LUT     -0.208611
    149 C11        72.8046   63.2820   43.3562 Y2         2 LUT      0.030784
    150 C12        73.9242   64.1091   43.1757 Y3         2 LUT     -0.220316
    151 C13        74.8746   64.0929   42.1417 Y4         2 LUT      0.215937
    152 C14        76.0263   64.8582   42.3908 Y5         2 LUT     -0.185793
    153 C15        77.0910   65.0545   41.4723 Y6         2 LUT     -0.057835
    154 C16        70.1345   60.7377   49.5201 Y7         2 LUT     -0.405615
    155 C17        70.2971   62.8470   50.5817 Y7         2 LUT     -0.405615
    156 C18        67.5124   64.4235   47.3420 Y9         2 LUT     -0.369639
    157 C19        70.5888   61.3379   44.4973 W1         2 LUT     -0.333362
    158 C20        74.4647   63.4703   40.8928 W2         2 LUT     -0.323439
    159 C21        88.3076   65.9766   35.2126 Z1         2 LUT      0.406104
    160 C22        89.1062   65.4937   34.0401 Z2         2 LUT     -0.404965
    161 C23        89.3882   66.5687   32.9784 Z3         2 LUT      0.391255
    162 O23        90.0702   65.8762   31.9233 S1         2 LUT     -0.528210
    163 C24        88.0723   67.3488   32.7005 W6         2 LUT     -0.258361
    164 C25        86.9812   67.3015   33.4902 Z5         2 LUT      0.133546
    165 C26        86.9208   66.4919   34.7611 W8         2 LUT     -0.147008
    166 C27        86.1919   67.1450   35.8589 Z7         2 LUT      0.023843
    167 C28        85.1792   66.7528   36.6619 Z8         2 LUT     -0.216987
    168 C29        84.4222   67.4204   37.6396 Z9         2 LUT      0.206524
    169 C30        83.3690   66.7919   38.1749 Y1         2 LUT     -0.215556
    170 C31        82.4914   67.0999   39.2512 Y2         2 LUT      0.025142
    171 C32        81.3761   66.3441   39.7211 Y3         2 LUT     -0.212209
    172 C33        80.3394   66.6529   40.6565 Y4         2 LUT      0.240937
    173 C34        79.3322   65.7536   40.6962 Y5         2 LUT     -0.218862
    174 C35        78.2646   65.7376   41.6059 Y6         2 LUT     -0.023547
    175 C36        89.1240   67.2464   35.7289 Y7         2 LUT     -0.393485
    176 C37        88.3215   64.9443   36.3434 Y7         2 LUT     -0.393485
    177 C38        85.7203   67.9627   32.9959 Y9         2 LUT     -0.387526
    178 C39        84.9484   68.7248   38.1661 W1         2 LUT     -0.322618
    179 C40        80.6090   67.6777   41.7121 W2         2 LUT     -0.358472
    180 H403       80.1831   67.2471   42.6001 R7         2 LUT      0.097720
    181 H402       81.6414   67.9609   41.8446 R7         2 LUT      0.097720
    182 H401       80.1733   68.6299   41.4553 R7         2 LUT      0.097720
    183 H393       86.0127   68.8087   38.2085 R4         2 LUT      0.082505
    184 H392       84.6848   69.4360   37.4567 R4         2 LUT      0.082505
    185 H391       84.4673   68.9921   39.0669 R4         2 LUT      0.082505
    186 H383       84.7611   67.4483   33.2646 R1         2 LUT      0.104030
    187 H382       85.6662   68.9339   33.4094 R1         2 LUT      0.104030
    188 H381       85.8181   68.2279   31.8932 R1         2 LUT      0.104030
    189 H373       87.6520   64.0712   36.1657 T4         2 LUT      0.089537
    190 H372       89.2687   64.5580   36.5875 T4         2 LUT      0.089537
    191 H371       87.9298   65.3394   37.2821 T4         2 LUT      0.089537
    192 H363       88.7362   67.5671   36.6544 T4         2 LUT      0.089537
    193 H362       90.1277   66.8509   36.0915 T4         2 LUT      0.089537
    194 H361       89.0990   68.0981   35.0587 T4         2 LUT      0.089537
    195 H222       90.0997   65.1010   34.3851 U2         2 LUT      0.127376
    196 H221       88.4905   64.7198   33.5611 U2         2 LUT      0.127376
    197 H203       73.4405   63.6406   40.5631 R7         2 LUT      0.087068
    198 H202       75.0496   63.7012   40.0197 R7         2 LUT      0.087068
    199 H201       74.6355   62.3961   41.0116 R7         2 LUT      0.087068
    200 H193       69.5177   61.4024   44.1825 R4         2 LUT      0.089716
    201 H192       71.2207   61.1870   43.6276 R4         2 LUT      0.089716
    202 H191       70.5806   60.5192   45.2160 R4         2 LUT      0.089716
    203 H183       67.3012   63.7840   46.5253 R1         2 LUT      0.094572
    204 H182       66.8583   65.2180   47.4902 R1         2 LUT      0.094572
    205 H181       68.3505   64.9249   46.9312 R1         2 LUT      0.094572
    206 H173       70.3588   62.4329   51.5703 T4         2 LUT      0.093752
    207 H172       71.3615   62.8632   50.2793 T4         2 LUT      0.093752
    208 H171       69.9862   63.9084   50.7021 T4         2 LUT      0.093752
    209 H163       69.4556   59.9991   49.0181 T4         2 LUT      0.093752
    210 H162       71.0399   60.9492   48.9860 T4         2 LUT      0.093752
    211 H161       70.4382   60.3014   50.5211 T4         2 LUT      0.093752
    212 HO3        67.1083   63.0752   52.9527 Q1         2 LUT      0.300121
    213 H8         70.9109   63.8014   46.9454 U7         2 LUT      0.080784
    214 H7         69.0547   61.2783   46.8023 U6         2 LUT      0.042190
    215 H42        66.0906   63.9307   49.5428 U5         2 LUT      0.145166
    216 H41        67.3115   65.0120   50.1005 U5         2 LUT      0.145166
    217 H35        78.3176   66.2356   42.5969 T3         2 LUT      0.077919
    218 H34        79.2434   64.9053   39.9938 T2         2 LUT      0.073626
    219 H32        81.3508   65.3589   39.2052 T1         2 LUT      0.092510
    220 H31        82.5680   67.9833   39.8730 U9         2 LUT      0.070048
    221 H30        83.2008   65.8620   37.7286 U8         2 LUT      0.085442
    222 H3         66.1567   62.5300   50.9411 U3         2 LUT     -0.031596
    223 H28        84.8121   65.7570   36.5460 U7         2 LUT      0.084728
    224 H27        86.2767   68.1779   35.7925 U6         2 LUT      0.087291
    225 H26        86.3622   65.5383   34.6216 Q6         2 LUT      0.075325
    226 H24        88.0028   67.9735   31.8135 Q5         2 LUT      0.094482
    227 H23        90.0753   67.2820   33.3671 U3         2 LUT     -0.024869
    228 H22        67.4527   60.9716   50.0409 U2         2 LUT      0.127376
    229 H21        68.4855   61.2266   51.4207 U2         2 LUT      0.127376
    230 H15        77.0035   64.5220   40.5381 T3         2 LUT      0.093200
    231 H14        76.1291   65.4749   43.2725 T2         2 LUT      0.068865
    232 H12        74.0931   64.7824   44.0126 T1         2 LUT      0.095507
    233 H11        72.6683   62.4470   42.6277 U9         2 LUT      0.068930
    234 H10        72.3944   64.1162   45.3030 U8         2 LUT      0.083911
    235 H1         89.6838   66.0263   31.0424 Q1         2 LUT      0.297311
@<TRIPOS>BOND
    1     6     1 1
    2     7     2 1
    3     8     3 1
    4     9     4 1
    5    11     4 1
    6    12     6 1
    7    13     9 1
    8    16     9 1
    9    25     5 1
   10    25    16 1
   11    26    10 1
   12    26    17 1
   13    27    18 1
   14    28    14 1
   15    28    19 1
   16    29    12 1
   17    30    13 1
   18    31    24 1
   19    32     1 1
   20    32    25 1
   21    33    21 1
   22    33    26 1
   23    34    22 1
   24    34    27 1
   25    35    23 1
   26    35    28 1
   27    36    12 1
   28    36    24 1
   29    37    13 1
   30    37    15 1
   31    38    31 1
   32    39    20 1
   33    39    32 1
   34    40     2 1
   35    40    33 1
   36    41     3 1
   37    41    34 1
   38    42     4 1
   39    42    35 1
   40    43    38 1
   41    44     5 1
   42    44    17 1
   43    44    39 1
   44    45    10 1
   45    45    18 1
   46    45    40 1
   47    46    19 1
   48    46    41 1
   49    47    14 1
   50    47    16 1
   51    47    42 1
   52    48    38 1
   53    49    48 1
   54    50    49 1
   55    51    50 1
   56    52    51 1
   57    53    51 1
   58    54    53 1
   59    55    54 1
   60    56    55 1
   61    57    56 1
   62    58    56 1
   63    59    58 1
   64    60    59 1
   65    61    60 1
   66    62    61 1
   67    63    61 1
   68    64    27 1
   69    64    46 1
   70    65     5 1
   71    65    10 1
   72    65    64 1
   73    65    14 1
   74    66    23 1
   75    67    23 1
   76    68    23 1
   77    69    22 1
   78    70    22 1
   79    71    22 1
   80    72    21 1
   81    73    21 1
   82    74    21 1
   83    75    20 1
   84    76    20 1
   85    77    20 1
   86    78    15 1
   87    79    15 1
   88    80    15 1
   89    81     8 1
   90    82     8 1
   91    83     8 1
   92    84     7 1
   93    85     7 1
   94    86     6 1
   95    87     6 1
   96    88     3 1
   97    89     3 1
   98    90     1 1
   99    91     1 1
  100    92    63 1
  101    93    63 1
  102    94    63 1
  103    95    62 1
  104    96    62 1
  105    97    62 1
  106    98    60 1
  107    99    60 1
  108   100    59 1
  109   101    59 1
  110   102    58 1
  111   103    58 1
  112   104    57 1
  113   105    57 1
  114   106    57 1
  115   107    55 1
  116   108    55 1
  117   109    54 1
  118   110    54 1
  119   111    53 1
  120   112    53 1
  121   113    19 1
  122   114    18 1
  123   115    17 1
  124   116     9 1
  125   117     2 1
  126   118    52 1
  127   119    52 1
  128   120    52 1
  129   121    51 1
  130   122    50 1
  131   123    50 1
  132   124    49 1
  133   125    49 1
  134   126    48 1
  135   127    48 1
  136   128    43 1
  137   129    43 1
  138   130    43 1
  139   131    39 1
  140   132    32 1
  141   133    31 1
  142   134    61 1
  143   135    56 1
  144   136    24 1
  145   137    24 1
  146   139   138 1
  147   140   139 1
  148   141   140 1
  149   142   140 1
  150   143   142 1
  151   144   138 1
  152   144   143 1
  153   145   144 1
  154   146   145 1
  155   147   146 1
  156   148   147 1
  157   149   148 1
  158   150   149 1
  159   151   150 1
  160   152   151 1
  161   153   152 1
  162   154   138 1
  163   155   138 1
  164   156   143 1
  165   157   147 1
  166   158   151 1
  167   160   159 1
  168   161   160 1
  169   162   161 1
  170   163   161 1
  171   164   163 1
  172   165   159 1
  173   165   164 1
  174   166   165 1
  175   167   166 1
  176   168   167 1
  177   169   168 1
  178   170   169 1
  179   171   170 1
  180   172   171 1
  181   173   172 1
  182   174   153 1
  183   174   173 1
  184   175   159 1
  185   176   159 1
  186   177   164 1
  187   178   168 1
  188   179   172 1
  189   180   179 1
  190   181   179 1
  191   182   179 1
  192   183   178 1
  193   184   178 1
  194   185   178 1
  195   186   177 1
  196   187   177 1
  197   188   177 1
  198   189   176 1
  199   190   176 1
  200   191   176 1
  201   192   175 1
  202   193   175 1
  203   194   175 1
  204   195   160 1
  205   196   160 1
  206   197   158 1
  207   198   158 1
  208   199   158 1
  209   200   157 1
  210   201   157 1
  211   202   157 1
  212   203   156 1
  213   204   156 1
  214   205   156 1
  215   206   155 1
  216   207   155 1
  217   208   155 1
  218   209   154 1
  219   210   154 1
  220   211   154 1
  221   212   141 1
  222   213   146 1
  223   214   145 1
  224   215   142 1
  225   216   142 1
  226   217   174 1
  227   218   173 1
  228   219   171 1
  229   220   170 1
  230   221   169 1
  231   222   140 1
  232   223   167 1
  233   224   166 1
  234   225   165 1
  235   226   163 1
  236   227   161 1
  237   228   139 1
  238   229   139 1
  239   230   153 1
  240   231   152 1
  241   232   150 1
  242   233   149 1
  243   234   148 1
  244   235   162 1
  245   65    153 1
  246   65    174 1
@<TRIPOS>SUBSTRUCTURE
      1 CLA               1 ****               0 ****  **** 
      2 LUT             138 ****               0 ****  **** 
